

         NASA-GLENN CHEMICAL EQUILIBRIUM PROGRAM CEA2, FEBRUARY 5, 2004
                   BY  BONNIE MCBRIDE AND SANFORD GORDON
      REFS: NASA RP-1311, PART I, 1994 AND NASA RP-1311, PART II, 1996

 *******************************************************************************

  
 ### CEA analysis performed on Wed 18-Oct-2023 21:59:24
  
 # Problem Type: "Rocket" (Infinite Area Combustor)
  
 prob case=_______________3743 ro equilibrium
  
 # Pressure (6 values):
 p,psia= 100, 200, 300, 400, 500, 600
  
 # Oxidizer/Fuel Wt. ratio (20 values):
 o/f= 1.2, 1.4, 1.6, 1.8, 2, 2.2, 2.4, 2.6, 2.8, 3, 3.2, 3.4, 3.6, 3.8, 4, 4.2, 4
 .4, 4.6, 4.8, 5
  
 # You selected the following fuels and oxidizers:
 reac
 fuel C2H5OH            wt%=100.0000
 oxid N2O               wt%=100.0000
  
 # You selected these options for output:
 # short version of output
 output short
 # Proportions of any products will be expressed as Mass Fractions.
 output massf
 # Heat will be expressed as siunits
 output siunits
 # Plot parameters:
 output plot aeat p t isp cf mach
  
  
 # Input prepared by this script:/var/www/sites/cearun.grc.nasa.gov/cgi-bin/CEARU
 N/prepareInputFile.cgi
  
 ### IMPORTANT:  The following line is the end of your CEA input file!
 end

              THEORETICAL ROCKET PERFORMANCE ASSUMING EQUILIBRIUM

           COMPOSITION DURING EXPANSION FROM INFINITE AREA COMBUSTOR

 Pin =   100.0 PSIA
 CASE = _______________

             REACTANT                    WT FRACTION      ENERGY      TEMP
                                          (SEE NOTE)     KJ/KG-MOL      K  
 FUEL        C2H5OH                       1.0000000         0.000      0.000
 OXIDANT     N2O                          1.0000000         0.000      0.000

 O/F=    1.20000  %FUEL= 45.454545  R,EQ.RATIO= 3.102773  PHI,EQ.RATIO= 4.776893

                 CHAMBER   THROAT
 Pinf/P            1.0000   1.8414
 P, BAR            6.8947   3.7442
 T, K             1713.24  1482.61
 RHO, KG/CU M    7.8418-1 4.9215-1
 H, KJ/KG         0.00000  -499.89
 U, KJ/KG         -879.23 -1260.67
 G, KJ/KG        -22737.5 -20176.6
 S, KJ/(KG)(K)    13.2716  13.2716

 M, (1/n)          16.201   16.203
 (dLV/dLP)t      -1.00014 -1.00031
 (dLV/dLT)p        1.0011   1.0027
 Cp, KJ/(KG)(K)    2.1904   2.1555
 GAMMAs            1.3066   1.3142
 SON VEL,M/SEC     1071.8    999.9
 MACH NUMBER        0.000    1.000

 PERFORMANCE PARAMETERS

 Ae/At                      1.0000
 CSTAR, M/SEC               1401.1
 CF                         0.7136
 Ivac, M/SEC                1760.8
 Isp, M/SEC                  999.9

 MASS FRACTIONS

 CH4              0.00002  0.00007
 *CO              0.54075  0.53726
 *CO2             0.01873  0.02411
 HCN              0.00003  0.00002
 *H2              0.05542  0.05565
 H2O              0.03789  0.03573
 NH3              0.00003  0.00003
 *N2              0.34713  0.34713

  * THERMODYNAMIC PROPERTIES FITTED TO 20000.K

 NOTE. WEIGHT FRACTION OF FUEL IN TOTAL FUELS AND OF OXIDANT IN TOTAL OXIDANTS

              THEORETICAL ROCKET PERFORMANCE ASSUMING EQUILIBRIUM

           COMPOSITION DURING EXPANSION FROM INFINITE AREA COMBUSTOR

 Pin =   200.0 PSIA
 CASE = _______________

             REACTANT                    WT FRACTION      ENERGY      TEMP
                                          (SEE NOTE)     KJ/KG-MOL      K  
 FUEL        C2H5OH                       1.0000000         0.000      0.000
 OXIDANT     N2O                          1.0000000         0.000      0.000

 O/F=    1.20000  %FUEL= 45.454545  R,EQ.RATIO= 3.102773  PHI,EQ.RATIO= 4.776893

                 CHAMBER   THROAT
 Pinf/P            1.0000   1.8399
 P, BAR            13.789   7.4948
 T, K             1713.73  1484.22
 RHO, KG/CU M    1.5682 0 9.8449-1
 H, KJ/KG         0.00000  -499.36
 U, KJ/KG         -879.33 -1260.64
 G, KJ/KG        -22134.4 -19669.5
 S, KJ/(KG)(K)    12.9159  12.9159

 M, (1/n)          16.204   16.210
 (dLV/dLP)t      -1.00040 -1.00112
 (dLV/dLT)p        1.0028   1.0101
 Cp, KJ/(KG)(K)    2.1964   2.1908
 GAMMAs            1.3064   1.3119
 SON VEL,M/SEC     1071.8    999.4
 MACH NUMBER        0.000    1.000

 PERFORMANCE PARAMETERS

 Ae/At                      1.0000
 CSTAR, M/SEC               1401.6
 CF                         0.7130
 Ivac, M/SEC                1761.1
 Isp, M/SEC                  999.4

 MASS FRACTIONS

 CH4              0.00007  0.00026
 *CO              0.54061  0.53685
 *CO2             0.01876  0.02419
 HCN              0.00006  0.00003
 *H2              0.05539  0.05557
 H2O              0.03795  0.03592
 NH3              0.00007  0.00007
 *N2              0.34709  0.34710

  * THERMODYNAMIC PROPERTIES FITTED TO 20000.K

 NOTE. WEIGHT FRACTION OF FUEL IN TOTAL FUELS AND OF OXIDANT IN TOTAL OXIDANTS

              THEORETICAL ROCKET PERFORMANCE ASSUMING EQUILIBRIUM

           COMPOSITION DURING EXPANSION FROM INFINITE AREA COMBUSTOR

 Pin =   300.0 PSIA
 CASE = _______________

             REACTANT                    WT FRACTION      ENERGY      TEMP
                                          (SEE NOTE)     KJ/KG-MOL      K  
 FUEL        C2H5OH                       1.0000000         0.000      0.000
 OXIDANT     N2O                          1.0000000         0.000      0.000

 O/F=    1.20000  %FUEL= 45.454545  R,EQ.RATIO= 3.102773  PHI,EQ.RATIO= 4.776893

                 CHAMBER   THROAT
 Pinf/P            1.0000   1.8376
 P, BAR            20.684   11.256
 T, K             1714.40  1486.66
 RHO, KG/CU M    2.3519 0 1.4771 0
 H, KJ/KG         0.00000  -498.60
 U, KJ/KG         -879.47 -1260.64
 G, KJ/KG        -21786.4 -19390.9
 S, KJ/(KG)(K)    12.7079  12.7079

 M, (1/n)          16.208   16.221
 (dLV/dLP)t      -1.00080 -1.00233
 (dLV/dLT)p        1.0058   1.0212
 Cp, KJ/(KG)(K)    2.2078   2.2445
 GAMMAs            1.3059   1.3086
 SON VEL,M/SEC     1071.7    998.6
 MACH NUMBER        0.000    1.000

 PERFORMANCE PARAMETERS

 Ae/At                     1.00000
 CSTAR, M/SEC               1402.3
 CF                         0.7121
 Ivac, M/SEC                1761.7
 Isp, M/SEC                  998.6

 MASS FRACTIONS

 CH4              0.00016  0.00056
 *CO              0.54040  0.53623
 *CO2             0.01880  0.02432
 HCN              0.00008  0.00005
 *H2              0.05535  0.05546
 H2O              0.03806  0.03622
 NH3              0.00010  0.00010
 *N2              0.34704  0.34706

  * THERMODYNAMIC PROPERTIES FITTED TO 20000.K

 NOTE. WEIGHT FRACTION OF FUEL IN TOTAL FUELS AND OF OXIDANT IN TOTAL OXIDANTS

              THEORETICAL ROCKET PERFORMANCE ASSUMING EQUILIBRIUM

           COMPOSITION DURING EXPANSION FROM INFINITE AREA COMBUSTOR

 Pin =   400.0 PSIA
 CASE = _______________

             REACTANT                    WT FRACTION      ENERGY      TEMP
                                          (SEE NOTE)     KJ/KG-MOL      K  
 FUEL        C2H5OH                       1.0000000         0.000      0.000
 OXIDANT     N2O                          1.0000000         0.000      0.000

 O/F=    1.20000  %FUEL= 45.454545  R,EQ.RATIO= 3.102773  PHI,EQ.RATIO= 4.776893

                 CHAMBER   THROAT
 Pinf/P            1.0000   1.8350
 P, BAR            27.579   15.029
 T, K             1715.26  1489.70
 RHO, KG/CU M    3.1352 0 1.9698 0
 H, KJ/KG         0.00000  -497.74
 U, KJ/KG         -879.65 -1260.72
 G, KJ/KG        -21544.3 -19208.9
 S, KJ/(KG)(K)    12.5603  12.5603

 M, (1/n)          16.213   16.234
 (dLV/dLP)t      -1.00133 -1.00383
 (dLV/dLT)p        1.0097   1.0349
 Cp, KJ/(KG)(K)    2.2238   2.3108
 GAMMAs            1.3051   1.3047
 SON VEL,M/SEC     1071.5    997.7
 MACH NUMBER        0.000    1.000

 PERFORMANCE PARAMETERS

 Ae/At                      1.0000
 CSTAR, M/SEC               1403.2
 CF                         0.7110
 Ivac, M/SEC                1762.4
 Isp, M/SEC                  997.7

 MASS FRACTIONS

 CH4              0.00028  0.00094
 *CO              0.54012  0.53544
 *CO2             0.01885  0.02447
 HCN              0.00011  0.00007
 *H2              0.05530  0.05531
 H2O              0.03819  0.03660
 NH3              0.00014  0.00014
 *N2              0.34700  0.34703

  * THERMODYNAMIC PROPERTIES FITTED TO 20000.K

 NOTE. WEIGHT FRACTION OF FUEL IN TOTAL FUELS AND OF OXIDANT IN TOTAL OXIDANTS

              THEORETICAL ROCKET PERFORMANCE ASSUMING EQUILIBRIUM

           COMPOSITION DURING EXPANSION FROM INFINITE AREA COMBUSTOR

 Pin =   500.0 PSIA
 CASE = _______________

             REACTANT                    WT FRACTION      ENERGY      TEMP
                                          (SEE NOTE)     KJ/KG-MOL      K  
 FUEL        C2H5OH                       1.0000000         0.000      0.000
 OXIDANT     N2O                          1.0000000         0.000      0.000

 O/F=    1.20000  %FUEL= 45.454545  R,EQ.RATIO= 3.102773  PHI,EQ.RATIO= 4.776893

                 CHAMBER   THROAT
 Pinf/P            1.0000   1.8323
 P, BAR            34.474   18.814
 T, K             1716.32  1493.15
 RHO, KG/CU M    3.9180 0 2.4625 0
 H, KJ/KG         0.00000  -496.89
 U, KJ/KG         -879.88 -1260.91
 G, KJ/KG        -21361.1 -19080.5
 S, KJ/(KG)(K)    12.4459  12.4459

 M, (1/n)          16.219   16.249
 (dLV/dLP)t      -1.00197 -1.00550
 (dLV/dLT)p        1.0146   1.0503
 Cp, KJ/(KG)(K)    2.2435   2.3845
 GAMMAs            1.3042   1.3008
 SON VEL,M/SEC     1071.2    996.9
 MACH NUMBER        0.000    1.000

 PERFORMANCE PARAMETERS

 Ae/At                      1.0000
 CSTAR, M/SEC               1404.3
 CF                         0.7099
 Ivac, M/SEC                1763.3
 Isp, M/SEC                  996.9

 MASS FRACTIONS

 CH4              0.00043  0.00138
 *CO              0.53978  0.53453
 *CO2             0.01892  0.02466
 HCN              0.00014  0.00008
 HNCO             0.00001  0.00000
 *H2              0.05523  0.05515
 H2O              0.03835  0.03703
 NH3              0.00017  0.00017
 *N2              0.34696  0.34699

  * THERMODYNAMIC PROPERTIES FITTED TO 20000.K

 NOTE. WEIGHT FRACTION OF FUEL IN TOTAL FUELS AND OF OXIDANT IN TOTAL OXIDANTS

              THEORETICAL ROCKET PERFORMANCE ASSUMING EQUILIBRIUM

           COMPOSITION DURING EXPANSION FROM INFINITE AREA COMBUSTOR

 Pin =   600.0 PSIA
 CASE = _______________

             REACTANT                    WT FRACTION      ENERGY      TEMP
                                          (SEE NOTE)     KJ/KG-MOL      K  
 FUEL        C2H5OH                       1.0000000         0.000      0.000
 OXIDANT     N2O                          1.0000000         0.000      0.000

 O/F=    1.20000  %FUEL= 45.454545  R,EQ.RATIO= 3.102773  PHI,EQ.RATIO= 4.776893

                 CHAMBER   THROAT
 Pinf/P            1.0000   1.8298
 P, BAR            41.368   22.609
 T, K             1717.54  1496.83
 RHO, KG/CU M    4.7002 0 2.9549 0
 H, KJ/KG         0.00000  -496.13
 U, KJ/KG         -880.15 -1261.25
 G, KJ/KG        -21215.9 -18985.7
 S, KJ/(KG)(K)    12.3525  12.3525

 M, (1/n)          16.225   16.266
 (dLV/dLP)t      -1.00270 -1.00726
 (dLV/dLT)p        1.0202   1.0664
 Cp, KJ/(KG)(K)    2.2665   2.4613
 GAMMAs            1.3031   1.2969
 SON VEL,M/SEC     1071.0    996.1
 MACH NUMBER        0.000    1.000

 PERFORMANCE PARAMETERS

 Ae/At                      1.0000
 CSTAR, M/SEC               1405.4
 CF                         0.7088
 Ivac, M/SEC                1764.2
 Isp, M/SEC                  996.1

 MASS FRACTIONS

 CH4              0.00061  0.00187
 *CO              0.53939  0.53354
 *CO2             0.01900  0.02486
 HCN              0.00017  0.00010
 HNCO             0.00001  0.00000
 *H2              0.05516  0.05496
 H2O              0.03854  0.03750
 NH3              0.00020  0.00020
 *N2              0.34692  0.34696

  * THERMODYNAMIC PROPERTIES FITTED TO 20000.K

 NOTE. WEIGHT FRACTION OF FUEL IN TOTAL FUELS AND OF OXIDANT IN TOTAL OXIDANTS

              THEORETICAL ROCKET PERFORMANCE ASSUMING EQUILIBRIUM

           COMPOSITION DURING EXPANSION FROM INFINITE AREA COMBUSTOR

 Pin =   100.0 PSIA
 CASE = _______________

             REACTANT                    WT FRACTION      ENERGY      TEMP
                                          (SEE NOTE)     KJ/KG-MOL      K  
 FUEL        C2H5OH                       1.0000000         0.000      0.000
 OXIDANT     N2O                          1.0000000         0.000      0.000

 O/F=    1.40000  %FUEL= 41.666667  R,EQ.RATIO= 2.839310  PHI,EQ.RATIO= 4.094480

                 CHAMBER   THROAT
 Pinf/P            1.0000   1.8336
 P, BAR            6.8947   3.7602
 T, K             1878.26  1634.73
 RHO, KG/CU M    7.5496-1 4.7311-1
 H, KJ/KG         0.00000  -517.07
 U, KJ/KG         -913.26 -1311.86
 G, KJ/KG        -24401.3 -21754.6
 S, KJ/(KG)(K)    12.9915  12.9915

 M, (1/n)          17.100   17.101
 (dLV/dLP)t      -1.00008 -1.00005
 (dLV/dLT)p        1.0013   1.0005
 Cp, KJ/(KG)(K)    2.1505   2.1020
 GAMMAs            1.2930   1.3012
 SON VEL,M/SEC     1086.7   1016.9
 MACH NUMBER        0.000    1.000

 PERFORMANCE PARAMETERS

 Ae/At                      1.0000
 CSTAR, M/SEC               1433.1
 CF                         0.7096
 Ivac, M/SEC                1798.5
 Isp, M/SEC                 1016.9

 MASS FRACTIONS

 *CO              0.48870  0.48448
 *CO2             0.02821  0.03485
 *H               0.00001  0.00000
 HCN              0.00001  0.00001
 *H2              0.04749  0.04780
 H2O              0.06429  0.06158
 NH3              0.00002  0.00002
 *N2              0.37126  0.37126

  * THERMODYNAMIC PROPERTIES FITTED TO 20000.K

 NOTE. WEIGHT FRACTION OF FUEL IN TOTAL FUELS AND OF OXIDANT IN TOTAL OXIDANTS

              THEORETICAL ROCKET PERFORMANCE ASSUMING EQUILIBRIUM

           COMPOSITION DURING EXPANSION FROM INFINITE AREA COMBUSTOR

 Pin =   200.0 PSIA
 CASE = _______________

             REACTANT                    WT FRACTION      ENERGY      TEMP
                                          (SEE NOTE)     KJ/KG-MOL      K  
 FUEL        C2H5OH                       1.0000000         0.000      0.000
 OXIDANT     N2O                          1.0000000         0.000      0.000

 O/F=    1.40000  %FUEL= 41.666667  R,EQ.RATIO= 2.839310  PHI,EQ.RATIO= 4.094480

                 CHAMBER   THROAT
 Pinf/P            1.0000   1.8336
 P, BAR            13.789   7.5205
 T, K             1878.62  1634.89
 RHO, KG/CU M    1.5097 0 9.4619-1
 H, KJ/KG         0.00000  -517.10
 U, KJ/KG         -913.37 -1311.92
 G, KJ/KG        -23773.0 -21205.7
 S, KJ/(KG)(K)    12.6545  12.6545

 M, (1/n)          17.101   17.102
 (dLV/dLP)t      -1.00012 -1.00013
 (dLV/dLT)p        1.0012   1.0010
 Cp, KJ/(KG)(K)    2.1463   2.1032
 GAMMAs            1.2936   1.3012
 SON VEL,M/SEC     1087.0   1017.0
 MACH NUMBER        0.000    1.000

 PERFORMANCE PARAMETERS

 Ae/At                      1.0000
 CSTAR, M/SEC               1433.1
 CF                         0.7096
 Ivac, M/SEC                1798.5
 Isp, M/SEC                 1017.0

 MASS FRACTIONS

 CH4              0.00001  0.00002
 *CO              0.48868  0.48444
 *CO2             0.02821  0.03485
 *H               0.00001  0.00000
 HCN              0.00003  0.00002
 *H2              0.04748  0.04779
 H2O              0.06431  0.06159
 NH3              0.00004  0.00004
 *N2              0.37123  0.37124

  * THERMODYNAMIC PROPERTIES FITTED TO 20000.K

 NOTE. WEIGHT FRACTION OF FUEL IN TOTAL FUELS AND OF OXIDANT IN TOTAL OXIDANTS

              THEORETICAL ROCKET PERFORMANCE ASSUMING EQUILIBRIUM

           COMPOSITION DURING EXPANSION FROM INFINITE AREA COMBUSTOR

 Pin =   300.0 PSIA
 CASE = _______________

             REACTANT                    WT FRACTION      ENERGY      TEMP
                                          (SEE NOTE)     KJ/KG-MOL      K  
 FUEL        C2H5OH                       1.0000000         0.000      0.000
 OXIDANT     N2O                          1.0000000         0.000      0.000

 O/F=    1.40000  %FUEL= 41.666667  R,EQ.RATIO= 2.839310  PHI,EQ.RATIO= 4.094480

                 CHAMBER   THROAT
 Pinf/P            1.0000   1.8335
 P, BAR            20.684   11.281
 T, K             1878.85  1635.11
 RHO, KG/CU M    2.2645 0 1.4193 0
 H, KJ/KG         0.00000  -517.07
 U, KJ/KG         -913.43 -1311.94
 G, KJ/KG        -23405.4 -20886.1
 S, KJ/(KG)(K)    12.4573  12.4573

 M, (1/n)          17.102   17.104
 (dLV/dLP)t      -1.00018 -1.00025
 (dLV/dLT)p        1.0014   1.0018
 Cp, KJ/(KG)(K)    2.1452   2.1064
 GAMMAs            1.2938   1.3011
 SON VEL,M/SEC     1087.1   1016.9
 MACH NUMBER        0.000    1.000

 PERFORMANCE PARAMETERS

 Ae/At                     1.00000
 CSTAR, M/SEC               1433.1
 CF                         0.7096
 Ivac, M/SEC                1798.6
 Isp, M/SEC                 1016.9

 MASS FRACTIONS

 CH4              0.00002  0.00004
 *CO              0.48865  0.48439
 *CO2             0.02821  0.03486
 *H               0.00001  0.00000
 HCN              0.00004  0.00002
 *H2              0.04748  0.04778
 H2O              0.06432  0.06162
 NH3              0.00006  0.00006
 *N2              0.37121  0.37122

  * THERMODYNAMIC PROPERTIES FITTED TO 20000.K

 NOTE. WEIGHT FRACTION OF FUEL IN TOTAL FUELS AND OF OXIDANT IN TOTAL OXIDANTS

              THEORETICAL ROCKET PERFORMANCE ASSUMING EQUILIBRIUM

           COMPOSITION DURING EXPANSION FROM INFINITE AREA COMBUSTOR

 Pin =   400.0 PSIA
 CASE = _______________

             REACTANT                    WT FRACTION      ENERGY      TEMP
                                          (SEE NOTE)     KJ/KG-MOL      K  
 FUEL        C2H5OH                       1.0000000         0.000      0.000
 OXIDANT     N2O                          1.0000000         0.000      0.000

 O/F=    1.40000  %FUEL= 41.666667  R,EQ.RATIO= 2.839310  PHI,EQ.RATIO= 4.094480

                 CHAMBER   THROAT
 Pinf/P            1.0000   1.8333
 P, BAR            27.579   15.043
 T, K             1879.04  1635.39
 RHO, KG/CU M    3.0192 0 1.8924 0
 H, KJ/KG         0.00000  -517.03
 U, KJ/KG         -913.47 -1311.96
 G, KJ/KG        -23145.0 -20660.9
 S, KJ/(KG)(K)    12.3175  12.3175

 M, (1/n)          17.103   17.105
 (dLV/dLP)t      -1.00026 -1.00041
 (dLV/dLT)p        1.0018   1.0030
 Cp, KJ/(KG)(K)    2.1454   2.1110
 GAMMAs            1.2939   1.3008
 SON VEL,M/SEC     1087.2   1016.9
 MACH NUMBER        0.000    1.000

 PERFORMANCE PARAMETERS

 Ae/At                      1.0000
 CSTAR, M/SEC               1433.2
 CF                         0.7095
 Ivac, M/SEC                1798.6
 Isp, M/SEC                 1016.9

 MASS FRACTIONS

 CH4              0.00003  0.00007
 *CO              0.48861  0.48432
 *CO2             0.02822  0.03487
 HCN              0.00005  0.00003
 *H2              0.04747  0.04776
 H2O              0.06434  0.06166
 NH3              0.00008  0.00008
 *N2              0.37118  0.37120

  * THERMODYNAMIC PROPERTIES FITTED TO 20000.K

 NOTE. WEIGHT FRACTION OF FUEL IN TOTAL FUELS AND OF OXIDANT IN TOTAL OXIDANTS

              THEORETICAL ROCKET PERFORMANCE ASSUMING EQUILIBRIUM

           COMPOSITION DURING EXPANSION FROM INFINITE AREA COMBUSTOR

 Pin =   500.0 PSIA
 CASE = _______________

             REACTANT                    WT FRACTION      ENERGY      TEMP
                                          (SEE NOTE)     KJ/KG-MOL      K  
 FUEL        C2H5OH                       1.0000000         0.000      0.000
 OXIDANT     N2O                          1.0000000         0.000      0.000

 O/F=    1.40000  %FUEL= 41.666667  R,EQ.RATIO= 2.839310  PHI,EQ.RATIO= 4.094480

                 CHAMBER   THROAT
 Pinf/P            1.0000   1.8331
 P, BAR            34.474   18.806
 T, K             1879.23  1635.74
 RHO, KG/CU M    3.7738 0 2.3655 0
 H, KJ/KG         0.00000  -516.96
 U, KJ/KG         -913.50 -1311.97
 G, KJ/KG        -22943.5 -20487.6
 S, KJ/(KG)(K)    12.2090  12.2090

 M, (1/n)          17.104   17.107
 (dLV/dLP)t      -1.00035 -1.00060
 (dLV/dLT)p        1.0022   1.0045
 Cp, KJ/(KG)(K)    2.1463   2.1170
 GAMMAs            1.2939   1.3005
 SON VEL,M/SEC     1087.2   1016.8
 MACH NUMBER        0.000    1.000

 PERFORMANCE PARAMETERS

 Ae/At                      1.0000
 CSTAR, M/SEC               1433.2
 CF                         0.7095
 Ivac, M/SEC                1798.7
 Isp, M/SEC                 1016.8

 MASS FRACTIONS

 CH4              0.00004  0.00011
 *CO              0.48856  0.48423
 *CO2             0.02822  0.03489
 HCN              0.00006  0.00004
 *H2              0.04746  0.04775
 H2O              0.06437  0.06170
 NH3              0.00010  0.00010
 *N2              0.37116  0.37118

  * THERMODYNAMIC PROPERTIES FITTED TO 20000.K

 NOTE. WEIGHT FRACTION OF FUEL IN TOTAL FUELS AND OF OXIDANT IN TOTAL OXIDANTS

              THEORETICAL ROCKET PERFORMANCE ASSUMING EQUILIBRIUM

           COMPOSITION DURING EXPANSION FROM INFINITE AREA COMBUSTOR

 Pin =   600.0 PSIA
 CASE = _______________

             REACTANT                    WT FRACTION      ENERGY      TEMP
                                          (SEE NOTE)     KJ/KG-MOL      K  
 FUEL        C2H5OH                       1.0000000         0.000      0.000
 OXIDANT     N2O                          1.0000000         0.000      0.000

 O/F=    1.40000  %FUEL= 41.666667  R,EQ.RATIO= 2.839310  PHI,EQ.RATIO= 4.094480

                 CHAMBER   THROAT
 Pinf/P            1.0000   1.8329
 P, BAR            41.368   22.571
 T, K             1879.42  1636.14
 RHO, KG/CU M    4.5284 0 2.8387 0
 H, KJ/KG         0.00000  -516.88
 U, KJ/KG         -913.52 -1311.98
 G, KJ/KG        -22779.3 -20347.5
 S, KJ/(KG)(K)    12.1204  12.1204

 M, (1/n)          17.106   17.109
 (dLV/dLP)t      -1.00046 -1.00083
 (dLV/dLT)p        1.0029   1.0063
 Cp, KJ/(KG)(K)    2.1479   2.1242
 GAMMAs            1.2939   1.3002
 SON VEL,M/SEC     1087.2   1016.7
 MACH NUMBER        0.000    1.000

 PERFORMANCE PARAMETERS

 Ae/At                      1.0000
 CSTAR, M/SEC               1433.3
 CF                         0.7094
 Ivac, M/SEC                1798.8
 Isp, M/SEC                 1016.7

 MASS FRACTIONS

 CH4              0.00006  0.00016
 *CO              0.48851  0.48413
 *CO2             0.02823  0.03491
 HCN              0.00008  0.00005
 HNCO             0.00001  0.00000
 *H2              0.04745  0.04772
 H2O              0.06439  0.06175
 NH3              0.00013  0.00012
 *N2              0.37114  0.37116

  * THERMODYNAMIC PROPERTIES FITTED TO 20000.K

 NOTE. WEIGHT FRACTION OF FUEL IN TOTAL FUELS AND OF OXIDANT IN TOTAL OXIDANTS

              THEORETICAL ROCKET PERFORMANCE ASSUMING EQUILIBRIUM

           COMPOSITION DURING EXPANSION FROM INFINITE AREA COMBUSTOR

 Pin =   100.0 PSIA
 CASE = _______________

             REACTANT                    WT FRACTION      ENERGY      TEMP
                                          (SEE NOTE)     KJ/KG-MOL      K  
 FUEL        C2H5OH                       1.0000000         0.000      0.000
 OXIDANT     N2O                          1.0000000         0.000      0.000

 O/F=    1.60000  %FUEL= 38.461538  R,EQ.RATIO= 2.617088  PHI,EQ.RATIO= 3.582670

                 CHAMBER   THROAT
 Pinf/P            1.0000   1.8267
 P, BAR            6.8947   3.7744
 T, K             2025.11  1771.79
 RHO, KG/CU M    7.3466-1 4.5976-1
 H, KJ/KG         0.00000  -529.41
 U, KJ/KG         -938.50 -1350.36
 G, KJ/KG        -25782.5 -23086.8
 S, KJ/(KG)(K)    12.7314  12.7314

 M, (1/n)          17.941   17.945
 (dLV/dLP)t      -1.00014 -1.00004
 (dLV/dLT)p        1.0031   1.0008
 Cp, KJ/(KG)(K)    2.1265   2.0651
 GAMMAs            1.2807   1.2898
 SON VEL,M/SEC     1096.3   1029.0
 MACH NUMBER        0.000    1.000

 PERFORMANCE PARAMETERS

 Ae/At                      1.0000
 CSTAR, M/SEC               1457.4
 CF                         0.7060
 Ivac, M/SEC                1826.8
 Isp, M/SEC                 1029.0

 MASS FRACTIONS

 *CO              0.44497  0.44050
 *CO2             0.03570  0.04272
 *H               0.00002  0.00000
 HCN              0.00001  0.00000
 *H2              0.04074  0.04108
 H2O              0.08686  0.08400
 NH3              0.00001  0.00001
 *N2              0.39167  0.39167
 *OH              0.00001  0.00000

  * THERMODYNAMIC PROPERTIES FITTED TO 20000.K

 NOTE. WEIGHT FRACTION OF FUEL IN TOTAL FUELS AND OF OXIDANT IN TOTAL OXIDANTS

              THEORETICAL ROCKET PERFORMANCE ASSUMING EQUILIBRIUM

           COMPOSITION DURING EXPANSION FROM INFINITE AREA COMBUSTOR

 Pin =   200.0 PSIA
 CASE = _______________

             REACTANT                    WT FRACTION      ENERGY      TEMP
                                          (SEE NOTE)     KJ/KG-MOL      K  
 FUEL        C2H5OH                       1.0000000         0.000      0.000
 OXIDANT     N2O                          1.0000000         0.000      0.000

 O/F=    1.60000  %FUEL= 38.461538  R,EQ.RATIO= 2.617088  PHI,EQ.RATIO= 3.582670

                 CHAMBER   THROAT
 Pinf/P            1.0000   1.8269
 P, BAR            13.789   7.5481
 T, K             2025.94  1771.90
 RHO, KG/CU M    1.4688 0 9.1940-1
 H, KJ/KG         0.00000  -529.57
 U, KJ/KG         -938.80 -1350.54
 G, KJ/KG        -25142.4 -22519.2
 S, KJ/(KG)(K)    12.4102  12.4102

 M, (1/n)          17.943   17.945
 (dLV/dLP)t      -1.00013 -1.00006
 (dLV/dLT)p        1.0023   1.0007
 Cp, KJ/(KG)(K)    2.1155   2.0626
 GAMMAs            1.2819   1.2901
 SON VEL,M/SEC     1097.0   1029.2
 MACH NUMBER        0.000    1.000

 PERFORMANCE PARAMETERS

 Ae/At                      1.0000
 CSTAR, M/SEC               1457.4
 CF                         0.7062
 Ivac, M/SEC                1826.9
 Isp, M/SEC                 1029.1

 MASS FRACTIONS

 *CO              0.44497  0.44050
 *CO2             0.03568  0.04272
 *H               0.00002  0.00000
 HCN              0.00001  0.00001
 *H2              0.04074  0.04108
 H2O              0.08688  0.08400
 NH3              0.00003  0.00002
 *N2              0.39165  0.39166
 *OH              0.00001  0.00000

  * THERMODYNAMIC PROPERTIES FITTED TO 20000.K

 NOTE. WEIGHT FRACTION OF FUEL IN TOTAL FUELS AND OF OXIDANT IN TOTAL OXIDANTS

              THEORETICAL ROCKET PERFORMANCE ASSUMING EQUILIBRIUM

           COMPOSITION DURING EXPANSION FROM INFINITE AREA COMBUSTOR

 Pin =   300.0 PSIA
 CASE = _______________

             REACTANT                    WT FRACTION      ENERGY      TEMP
                                          (SEE NOTE)     KJ/KG-MOL      K  
 FUEL        C2H5OH                       1.0000000         0.000      0.000
 OXIDANT     N2O                          1.0000000         0.000      0.000

 O/F=    1.60000  %FUEL= 38.461538  R,EQ.RATIO= 2.617088  PHI,EQ.RATIO= 3.582670

                 CHAMBER   THROAT
 Pinf/P            1.0000   1.8269
 P, BAR            20.684   11.322
 T, K             2026.33  1771.98
 RHO, KG/CU M    2.2030 0 1.3790 0
 H, KJ/KG         0.00000  -529.63
 U, KJ/KG         -938.93 -1350.62
 G, KJ/KG        -24766.5 -22187.4
 S, KJ/(KG)(K)    12.2223  12.2223

 M, (1/n)          17.944   17.946
 (dLV/dLP)t      -1.00014 -1.00009
 (dLV/dLT)p        1.0020   1.0007
 Cp, KJ/(KG)(K)    2.1107   2.0618
 GAMMAs            1.2825   1.2903
 SON VEL,M/SEC     1097.4   1029.2
 MACH NUMBER        0.000    1.000

 PERFORMANCE PARAMETERS

 Ae/At                      1.0000
 CSTAR, M/SEC               1457.3
 CF                         0.7062
 Ivac, M/SEC                1826.9
 Isp, M/SEC                 1029.2

 MASS FRACTIONS

 CH4              0.00000  0.00001
 *CO              0.44496  0.44048
 *CO2             0.03568  0.04272
 *H               0.00001  0.00000
 HCN              0.00002  0.00001
 *H2              0.04074  0.04108
 H2O              0.08689  0.08401
 NH3              0.00004  0.00004
 *N2              0.39163  0.39164
 *OH              0.00001  0.00000

  * THERMODYNAMIC PROPERTIES FITTED TO 20000.K

 NOTE. WEIGHT FRACTION OF FUEL IN TOTAL FUELS AND OF OXIDANT IN TOTAL OXIDANTS

              THEORETICAL ROCKET PERFORMANCE ASSUMING EQUILIBRIUM

           COMPOSITION DURING EXPANSION FROM INFINITE AREA COMBUSTOR

 Pin =   400.0 PSIA
 CASE = _______________

             REACTANT                    WT FRACTION      ENERGY      TEMP
                                          (SEE NOTE)     KJ/KG-MOL      K  
 FUEL        C2H5OH                       1.0000000         0.000      0.000
 OXIDANT     N2O                          1.0000000         0.000      0.000

 O/F=    1.60000  %FUEL= 38.461538  R,EQ.RATIO= 2.617088  PHI,EQ.RATIO= 3.582670

                 CHAMBER   THROAT
 Pinf/P            1.0000   1.8270
 P, BAR            27.579   15.095
 T, K             2026.58  1772.06
 RHO, KG/CU M    2.9370 0 1.8387 0
 H, KJ/KG         0.00000  -529.67
 U, KJ/KG         -939.00 -1350.67
 G, KJ/KG        -24499.4 -21952.1
 S, KJ/(KG)(K)    12.0890  12.0890

 M, (1/n)          17.945   17.946
 (dLV/dLP)t      -1.00016 -1.00012
 (dLV/dLT)p        1.0019   1.0009
 Cp, KJ/(KG)(K)    2.1080   2.0617
 GAMMAs            1.2828   1.2903
 SON VEL,M/SEC     1097.5   1029.3
 MACH NUMBER        0.000    1.000

 PERFORMANCE PARAMETERS

 Ae/At                      1.0000
 CSTAR, M/SEC               1457.3
 CF                         0.7062
 Ivac, M/SEC                1826.9
 Isp, M/SEC                 1029.2

 MASS FRACTIONS

 CH4              0.00000  0.00001
 *CO              0.44495  0.44047
 *CO2             0.03567  0.04273
 *H               0.00001  0.00000
 HCN              0.00003  0.00002
 *H2              0.04074  0.04107
 H2O              0.08690  0.08402
 NH3              0.00006  0.00005
 *N2              0.39162  0.39163
 *OH              0.00001  0.00000

  * THERMODYNAMIC PROPERTIES FITTED TO 20000.K

 NOTE. WEIGHT FRACTION OF FUEL IN TOTAL FUELS AND OF OXIDANT IN TOTAL OXIDANTS

              THEORETICAL ROCKET PERFORMANCE ASSUMING EQUILIBRIUM

           COMPOSITION DURING EXPANSION FROM INFINITE AREA COMBUSTOR

 Pin =   500.0 PSIA
 CASE = _______________

             REACTANT                    WT FRACTION      ENERGY      TEMP
                                          (SEE NOTE)     KJ/KG-MOL      K  
 FUEL        C2H5OH                       1.0000000         0.000      0.000
 OXIDANT     N2O                          1.0000000         0.000      0.000

 O/F=    1.60000  %FUEL= 38.461538  R,EQ.RATIO= 2.617088  PHI,EQ.RATIO= 3.582670

                 CHAMBER   THROAT
 Pinf/P            1.0000   1.8270
 P, BAR            34.474   18.869
 T, K             2026.77  1772.13
 RHO, KG/CU M    3.6711 0 2.2983 0
 H, KJ/KG         0.00000  -529.69
 U, KJ/KG         -939.05 -1350.70
 G, KJ/KG        -24292.1 -21769.8
 S, KJ/(KG)(K)    11.9856  11.9856

 M, (1/n)          17.945   17.947
 (dLV/dLP)t      -1.00019 -1.00016
 (dLV/dLT)p        1.0019   1.0011
 Cp, KJ/(KG)(K)    2.1063   2.0619
 GAMMAs            1.2830   1.2904
 SON VEL,M/SEC     1097.7   1029.3
 MACH NUMBER        0.000    1.000

 PERFORMANCE PARAMETERS

 Ae/At                      1.0000
 CSTAR, M/SEC               1457.3
 CF                         0.7063
 Ivac, M/SEC                1826.9
 Isp, M/SEC                 1029.3

 MASS FRACTIONS

 CH4              0.00001  0.00001
 *CO              0.44494  0.44045
 *CO2             0.03567  0.04273
 *H               0.00001  0.00000
 HCN              0.00004  0.00002
 *H2              0.04074  0.04107
 H2O              0.08691  0.08402
 NH3              0.00007  0.00006
 *N2              0.39160  0.39162
 *OH              0.00001  0.00000

  * THERMODYNAMIC PROPERTIES FITTED TO 20000.K

 NOTE. WEIGHT FRACTION OF FUEL IN TOTAL FUELS AND OF OXIDANT IN TOTAL OXIDANTS

              THEORETICAL ROCKET PERFORMANCE ASSUMING EQUILIBRIUM

           COMPOSITION DURING EXPANSION FROM INFINITE AREA COMBUSTOR

 Pin =   600.0 PSIA
 CASE = _______________

             REACTANT                    WT FRACTION      ENERGY      TEMP
                                          (SEE NOTE)     KJ/KG-MOL      K  
 FUEL        C2H5OH                       1.0000000         0.000      0.000
 OXIDANT     N2O                          1.0000000         0.000      0.000

 O/F=    1.60000  %FUEL= 38.461538  R,EQ.RATIO= 2.617088  PHI,EQ.RATIO= 3.582670

                 CHAMBER   THROAT
 Pinf/P            1.0000   1.8270
 P, BAR            41.368   22.643
 T, K             2026.92  1772.22
 RHO, KG/CU M    4.4052 0 2.7579 0
 H, KJ/KG         0.00000  -529.70
 U, KJ/KG         -939.09 -1350.72
 G, KJ/KG        -24122.7 -21621.1
 S, KJ/(KG)(K)    11.9012  11.9012

 M, (1/n)          17.946   17.947
 (dLV/dLP)t      -1.00022 -1.00020
 (dLV/dLT)p        1.0019   1.0013
 Cp, KJ/(KG)(K)    2.1052   2.0625
 GAMMAs            1.2832   1.2904
 SON VEL,M/SEC     1097.7   1029.3
 MACH NUMBER        0.000    1.000

 PERFORMANCE PARAMETERS

 Ae/At                      1.0000
 CSTAR, M/SEC               1457.3
 CF                         0.7063
 Ivac, M/SEC                1826.9
 Isp, M/SEC                 1029.3

 MASS FRACTIONS

 CH4              0.00001  0.00002
 *CO              0.44492  0.44043
 *CO2             0.03567  0.04273
 *H               0.00001  0.00000
 HCN              0.00004  0.00003
 *H2              0.04073  0.04107
 H2O              0.08692  0.08403
 NH3              0.00008  0.00007
 *N2              0.39159  0.39161

  * THERMODYNAMIC PROPERTIES FITTED TO 20000.K

 NOTE. WEIGHT FRACTION OF FUEL IN TOTAL FUELS AND OF OXIDANT IN TOTAL OXIDANTS

              THEORETICAL ROCKET PERFORMANCE ASSUMING EQUILIBRIUM

           COMPOSITION DURING EXPANSION FROM INFINITE AREA COMBUSTOR

 Pin =   100.0 PSIA
 CASE = _______________

             REACTANT                    WT FRACTION      ENERGY      TEMP
                                          (SEE NOTE)     KJ/KG-MOL      K  
 FUEL        C2H5OH                       1.0000000         0.000      0.000
 OXIDANT     N2O                          1.0000000         0.000      0.000

 O/F=    1.80000  %FUEL= 35.714286  R,EQ.RATIO= 2.427126  PHI,EQ.RATIO= 3.184595

                 CHAMBER   THROAT
 Pinf/P            1.0000   1.8206
 P, BAR            6.8947   3.7872
 T, K             2156.13  1895.78
 RHO, KG/CU M    7.2030-1 4.5015-1
 H, KJ/KG         0.00000  -538.21
 U, KJ/KG         -957.20 -1379.52
 G, KJ/KG        -26936.0 -24221.7
 S, KJ/(KG)(K)    12.4928  12.4928

 M, (1/n)          18.729   18.736
 (dLV/dLP)t      -1.00026 -1.00007
 (dLV/dLT)p        1.0064   1.0017
 Cp, KJ/(KG)(K)    2.1194   2.0379
 GAMMAs            1.2689   1.2795
 SON VEL,M/SEC     1102.1   1037.5
 MACH NUMBER        0.000    1.000

 PERFORMANCE PARAMETERS

 Ae/At                      1.0000
 CSTAR, M/SEC               1476.3
 CF                         0.7028
 Ivac, M/SEC                1848.4
 Isp, M/SEC                 1037.5

 MASS FRACTIONS

 *CO              0.40733  0.40285
 *CO2             0.04236  0.04940
 *H               0.00005  0.00001
 *H2              0.03496  0.03532
 H2O              0.10609  0.10324
 NH3              0.00001  0.00001
 *N2              0.40916  0.40916
 *OH              0.00004  0.00001

  * THERMODYNAMIC PROPERTIES FITTED TO 20000.K

 NOTE. WEIGHT FRACTION OF FUEL IN TOTAL FUELS AND OF OXIDANT IN TOTAL OXIDANTS

              THEORETICAL ROCKET PERFORMANCE ASSUMING EQUILIBRIUM

           COMPOSITION DURING EXPANSION FROM INFINITE AREA COMBUSTOR

 Pin =   200.0 PSIA
 CASE = _______________

             REACTANT                    WT FRACTION      ENERGY      TEMP
                                          (SEE NOTE)     KJ/KG-MOL      K  
 FUEL        C2H5OH                       1.0000000         0.000      0.000
 OXIDANT     N2O                          1.0000000         0.000      0.000

 O/F=    1.80000  %FUEL= 35.714286  R,EQ.RATIO= 2.427126  PHI,EQ.RATIO= 3.184595

                 CHAMBER   THROAT
 Pinf/P            1.0000   1.8210
 P, BAR            13.789   7.5727
 T, K             2157.86  1896.02
 RHO, KG/CU M    1.4397 0 9.0003-1
 H, KJ/KG         0.00000  -538.58
 U, KJ/KG         -957.82 -1379.96
 G, KJ/KG        -26293.6 -23641.8
 S, KJ/(KG)(K)    12.1851  12.1851

 M, (1/n)          18.732   18.737
 (dLV/dLP)t      -1.00021 -1.00007
 (dLV/dLT)p        1.0047   1.0013
 Cp, KJ/(KG)(K)    2.0985   2.0316
 GAMMAs            1.2711   1.2803
 SON VEL,M/SEC     1103.4   1037.9
 MACH NUMBER        0.000    1.000

 PERFORMANCE PARAMETERS

 Ae/At                      1.0000
 CSTAR, M/SEC               1476.2
 CF                         0.7031
 Ivac, M/SEC                1848.5
 Isp, M/SEC                 1037.9

 MASS FRACTIONS

 *CO              0.40735  0.40285
 *CO2             0.04231  0.04939
 *H               0.00004  0.00001
 HCN              0.00001  0.00001
 *H2              0.03497  0.03532
 H2O              0.10612  0.10325
 NH3              0.00002  0.00002
 *N2              0.40915  0.40915
 *OH              0.00003  0.00000

  * THERMODYNAMIC PROPERTIES FITTED TO 20000.K

 NOTE. WEIGHT FRACTION OF FUEL IN TOTAL FUELS AND OF OXIDANT IN TOTAL OXIDANTS

              THEORETICAL ROCKET PERFORMANCE ASSUMING EQUILIBRIUM

           COMPOSITION DURING EXPANSION FROM INFINITE AREA COMBUSTOR

 Pin =   300.0 PSIA
 CASE = _______________

             REACTANT                    WT FRACTION      ENERGY      TEMP
                                          (SEE NOTE)     KJ/KG-MOL      K  
 FUEL        C2H5OH                       1.0000000         0.000      0.000
 OXIDANT     N2O                          1.0000000         0.000      0.000

 O/F=    1.80000  %FUEL= 35.714286  R,EQ.RATIO= 2.427126  PHI,EQ.RATIO= 3.184595

                 CHAMBER   THROAT
 Pinf/P            1.0000   1.8211
 P, BAR            20.684   11.358
 T, K             2158.64  1896.14
 RHO, KG/CU M    2.1589 0 1.3499 0
 H, KJ/KG         0.00000  -538.74
 U, KJ/KG         -958.10 -1380.15
 G, KJ/KG        -25914.7 -23302.1
 S, KJ/(KG)(K)    12.0051  12.0051

 M, (1/n)          18.733   18.737
 (dLV/dLP)t      -1.00019 -1.00007
 (dLV/dLT)p        1.0039   1.0011
 Cp, KJ/(KG)(K)    2.0893   2.0289
 GAMMAs            1.2721   1.2806
 SON VEL,M/SEC     1104.0   1038.0
 MACH NUMBER        0.000    1.000

 PERFORMANCE PARAMETERS

 Ae/At                      1.0000
 CSTAR, M/SEC               1476.2
 CF                         0.7032
 Ivac, M/SEC                1848.6
 Isp, M/SEC                 1038.0

 MASS FRACTIONS

 *CO              0.40735  0.40285
 *CO2             0.04230  0.04939
 *H               0.00003  0.00001
 HCN              0.00001  0.00001
 *H2              0.03497  0.03532
 H2O              0.10614  0.10326
 NH3              0.00003  0.00002
 *N2              0.40913  0.40914
 *OH              0.00003  0.00000

  * THERMODYNAMIC PROPERTIES FITTED TO 20000.K

 NOTE. WEIGHT FRACTION OF FUEL IN TOTAL FUELS AND OF OXIDANT IN TOTAL OXIDANTS

              THEORETICAL ROCKET PERFORMANCE ASSUMING EQUILIBRIUM

           COMPOSITION DURING EXPANSION FROM INFINITE AREA COMBUSTOR

 Pin =   400.0 PSIA
 CASE = _______________

             REACTANT                    WT FRACTION      ENERGY      TEMP
                                          (SEE NOTE)     KJ/KG-MOL      K  
 FUEL        C2H5OH                       1.0000000         0.000      0.000
 OXIDANT     N2O                          1.0000000         0.000      0.000

 O/F=    1.80000  %FUEL= 35.714286  R,EQ.RATIO= 2.427126  PHI,EQ.RATIO= 3.184595

                 CHAMBER   THROAT
 Pinf/P            1.0000   1.8212
 P, BAR            27.579   15.143
 T, K             2159.12  1896.22
 RHO, KG/CU M    2.8780 0 1.7997 0
 H, KJ/KG         0.00000  -538.84
 U, KJ/KG         -958.26 -1380.26
 G, KJ/KG        -25644.8 -23061.1
 S, KJ/(KG)(K)    11.8774  11.8774

 M, (1/n)          18.734   18.738
 (dLV/dLP)t      -1.00019 -1.00008
 (dLV/dLT)p        1.0034   1.0010
 Cp, KJ/(KG)(K)    2.0837   2.0274
 GAMMAs            1.2727   1.2808
 SON VEL,M/SEC     1104.3   1038.1
 MACH NUMBER        0.000    1.000

 PERFORMANCE PARAMETERS

 Ae/At                      1.0000
 CSTAR, M/SEC               1476.2
 CF                         0.7033
 Ivac, M/SEC                1848.6
 Isp, M/SEC                 1038.1

 MASS FRACTIONS

 *CO              0.40735  0.40284
 *CO2             0.04229  0.04939
 *H               0.00003  0.00001
 HCN              0.00002  0.00001
 *H2              0.03497  0.03532
 H2O              0.10615  0.10326
 NH3              0.00004  0.00003
 *N2              0.40912  0.40913
 *OH              0.00002  0.00000

  * THERMODYNAMIC PROPERTIES FITTED TO 20000.K

 NOTE. WEIGHT FRACTION OF FUEL IN TOTAL FUELS AND OF OXIDANT IN TOTAL OXIDANTS

              THEORETICAL ROCKET PERFORMANCE ASSUMING EQUILIBRIUM

           COMPOSITION DURING EXPANSION FROM INFINITE AREA COMBUSTOR

 Pin =   500.0 PSIA
 CASE = _______________

             REACTANT                    WT FRACTION      ENERGY      TEMP
                                          (SEE NOTE)     KJ/KG-MOL      K  
 FUEL        C2H5OH                       1.0000000         0.000      0.000
 OXIDANT     N2O                          1.0000000         0.000      0.000

 O/F=    1.80000  %FUEL= 35.714286  R,EQ.RATIO= 2.427126  PHI,EQ.RATIO= 3.184595

                 CHAMBER   THROAT
 Pinf/P            1.0000   1.8213
 P, BAR            34.474   18.928
 T, K             2159.46  1896.29
 RHO, KG/CU M    3.5971 0 2.2495 0
 H, KJ/KG         0.00000  -538.90
 U, KJ/KG         -958.37 -1380.33
 G, KJ/KG        -25435.0 -22874.1
 S, KJ/(KG)(K)    11.7784  11.7784

 M, (1/n)          18.735   18.738
 (dLV/dLP)t      -1.00020 -1.00010
 (dLV/dLT)p        1.0031   1.0010
 Cp, KJ/(KG)(K)    2.0800   2.0265
 GAMMAs            1.2731   1.2809
 SON VEL,M/SEC     1104.6   1038.2
 MACH NUMBER        0.000    1.000

 PERFORMANCE PARAMETERS

 Ae/At                     1.00000
 CSTAR, M/SEC               1476.1
 CF                         0.7033
 Ivac, M/SEC                1848.7
 Isp, M/SEC                 1038.2

 MASS FRACTIONS

 *CO              0.40735  0.40284
 *CO2             0.04228  0.04939
 *H               0.00002  0.00001
 HCN              0.00002  0.00001
 *H2              0.03497  0.03531
 H2O              0.10616  0.10326
 NH3              0.00005  0.00004
 *N2              0.40911  0.40913
 *OH              0.00002  0.00000

  * THERMODYNAMIC PROPERTIES FITTED TO 20000.K

 NOTE. WEIGHT FRACTION OF FUEL IN TOTAL FUELS AND OF OXIDANT IN TOTAL OXIDANTS

              THEORETICAL ROCKET PERFORMANCE ASSUMING EQUILIBRIUM

           COMPOSITION DURING EXPANSION FROM INFINITE AREA COMBUSTOR

 Pin =   600.0 PSIA
 CASE = _______________

             REACTANT                    WT FRACTION      ENERGY      TEMP
                                          (SEE NOTE)     KJ/KG-MOL      K  
 FUEL        C2H5OH                       1.0000000         0.000      0.000
 OXIDANT     N2O                          1.0000000         0.000      0.000

 O/F=    1.80000  %FUEL= 35.714286  R,EQ.RATIO= 2.427126  PHI,EQ.RATIO= 3.184595

                 CHAMBER   THROAT
 Pinf/P            1.0000   1.8213
 P, BAR            41.368   22.713
 T, K             2159.72  1896.35
 RHO, KG/CU M    4.3162 0 2.6993 0
 H, KJ/KG         0.00000  -538.94
 U, KJ/KG         -958.44 -1380.39
 G, KJ/KG        -25263.2 -22721.4
 S, KJ/(KG)(K)    11.6975  11.6975

 M, (1/n)          18.736   18.738
 (dLV/dLP)t      -1.00020 -1.00011
 (dLV/dLT)p        1.0029   1.0010
 Cp, KJ/(KG)(K)    2.0773   2.0258
 GAMMAs            1.2734   1.2810
 SON VEL,M/SEC     1104.7   1038.2
 MACH NUMBER        0.000    1.000

 PERFORMANCE PARAMETERS

 Ae/At                     1.00000
 CSTAR, M/SEC               1476.1
 CF                         0.7033
 Ivac, M/SEC                1848.7
 Isp, M/SEC                 1038.2

 MASS FRACTIONS

 *CO              0.40734  0.40283
 *CO2             0.04228  0.04939
 *H               0.00002  0.00000
 HCN              0.00003  0.00002
 *H2              0.03497  0.03531
 H2O              0.10617  0.10327
 NH3              0.00006  0.00005
 *N2              0.40910  0.40912
 *OH              0.00002  0.00000

  * THERMODYNAMIC PROPERTIES FITTED TO 20000.K

 NOTE. WEIGHT FRACTION OF FUEL IN TOTAL FUELS AND OF OXIDANT IN TOTAL OXIDANTS

              THEORETICAL ROCKET PERFORMANCE ASSUMING EQUILIBRIUM

           COMPOSITION DURING EXPANSION FROM INFINITE AREA COMBUSTOR

 Pin =   100.0 PSIA
 CASE = _______________

             REACTANT                    WT FRACTION      ENERGY      TEMP
                                          (SEE NOTE)     KJ/KG-MOL      K  
 FUEL        C2H5OH                       1.0000000         0.000      0.000
 OXIDANT     N2O                          1.0000000         0.000      0.000

 O/F=    2.00000  %FUEL= 33.333333  R,EQ.RATIO= 2.262874  PHI,EQ.RATIO= 2.866136

                 CHAMBER   THROAT
 Pinf/P            1.0000   1.8148
 P, BAR            6.8947   3.7991
 T, K             2273.10  2008.38
 RHO, KG/CU M    7.1012-1 4.4316-1
 H, KJ/KG         0.00000  -544.30
 U, KJ/KG         -970.92 -1401.57
 G, KJ/KG        -27901.0 -25196.1
 S, KJ/(KG)(K)    12.2745  12.2745

 M, (1/n)          19.466   19.479
 (dLV/dLP)t      -1.00048 -1.00013
 (dLV/dLT)p        1.0115   1.0035
 Cp, KJ/(KG)(K)    2.1294   2.0214
 GAMMAs            1.2575   1.2698
 SON VEL,M/SEC     1104.9   1043.4
 MACH NUMBER        0.000    1.000

 PERFORMANCE PARAMETERS

 Ae/At                      1.0000
 CSTAR, M/SEC               1491.1
 CF                         0.6997
 Ivac, M/SEC                1865.0
 Isp, M/SEC                 1043.4

 MASS FRACTIONS

 *CO              0.37430  0.36991
 *CO2             0.04876  0.05566
 *H               0.00009  0.00002
 *H2              0.02996  0.03033
 H2O              0.12244  0.11972
 NH3              0.00001  0.00001
 *NO              0.00001  0.00000
 *N2              0.42431  0.42432
 *OH              0.00012  0.00002

  * THERMODYNAMIC PROPERTIES FITTED TO 20000.K

 NOTE. WEIGHT FRACTION OF FUEL IN TOTAL FUELS AND OF OXIDANT IN TOTAL OXIDANTS

              THEORETICAL ROCKET PERFORMANCE ASSUMING EQUILIBRIUM

           COMPOSITION DURING EXPANSION FROM INFINITE AREA COMBUSTOR

 Pin =   200.0 PSIA
 CASE = _______________

             REACTANT                    WT FRACTION      ENERGY      TEMP
                                          (SEE NOTE)     KJ/KG-MOL      K  
 FUEL        C2H5OH                       1.0000000         0.000      0.000
 OXIDANT     N2O                          1.0000000         0.000      0.000

 O/F=    2.00000  %FUEL= 33.333333  R,EQ.RATIO= 2.262874  PHI,EQ.RATIO= 2.866136

                 CHAMBER   THROAT
 Pinf/P            1.0000   1.8155
 P, BAR            13.789   7.5954
 T, K             2276.22  2008.92
 RHO, KG/CU M    1.4187 0 8.8583-1
 H, KJ/KG         0.00000  -544.96
 U, KJ/KG         -971.99 -1402.40
 G, KJ/KG        -27265.6 -24608.8
 S, KJ/(KG)(K)    11.9784  11.9784

 M, (1/n)          19.471   19.480
 (dLV/dLP)t      -1.00036 -1.00011
 (dLV/dLT)p        1.0083   1.0025
 Cp, KJ/(KG)(K)    2.0954   2.0097
 GAMMAs            1.2607   1.2712
 SON VEL,M/SEC     1107.0   1044.0
 MACH NUMBER        0.000    1.000

 PERFORMANCE PARAMETERS

 Ae/At                      1.0000
 CSTAR, M/SEC               1491.1
 CF                         0.7002
 Ivac, M/SEC                1865.3
 Isp, M/SEC                 1044.0

 MASS FRACTIONS

 *CO              0.37435  0.36992
 *CO2             0.04868  0.05564
 *H               0.00006  0.00002
 HCN              0.00001  0.00000
 *H2              0.02998  0.03034
 H2O              0.12251  0.11974
 NH3              0.00001  0.00001
 *NO              0.00001  0.00000
 *N2              0.42430  0.42431
 *OH              0.00009  0.00002

  * THERMODYNAMIC PROPERTIES FITTED TO 20000.K

 NOTE. WEIGHT FRACTION OF FUEL IN TOTAL FUELS AND OF OXIDANT IN TOTAL OXIDANTS

              THEORETICAL ROCKET PERFORMANCE ASSUMING EQUILIBRIUM

           COMPOSITION DURING EXPANSION FROM INFINITE AREA COMBUSTOR

 Pin =   300.0 PSIA
 CASE = _______________

             REACTANT                    WT FRACTION      ENERGY      TEMP
                                          (SEE NOTE)     KJ/KG-MOL      K  
 FUEL        C2H5OH                       1.0000000         0.000      0.000
 OXIDANT     N2O                          1.0000000         0.000      0.000

 O/F=    2.00000  %FUEL= 33.333333  R,EQ.RATIO= 2.262874  PHI,EQ.RATIO= 2.866136

                 CHAMBER   THROAT
 Pinf/P            1.0000   1.8158
 P, BAR            20.684   11.391
 T, K             2277.64  2009.17
 RHO, KG/CU M    2.1270 0 1.3284 0
 H, KJ/KG         0.00000  -545.27
 U, KJ/KG         -972.48 -1402.77
 G, KJ/KG        -26888.3 -24264.1
 S, KJ/(KG)(K)    11.8053  11.8053

 M, (1/n)          19.474   19.481
 (dLV/dLP)t      -1.00031 -1.00010
 (dLV/dLT)p        1.0068   1.0021
 Cp, KJ/(KG)(K)    2.0801   2.0045
 GAMMAs            1.2623   1.2718
 SON VEL,M/SEC     1107.9   1044.3
 MACH NUMBER        0.000    1.000

 PERFORMANCE PARAMETERS

 Ae/At                      1.0000
 CSTAR, M/SEC               1491.0
 CF                         0.7004
 Ivac, M/SEC                1865.4
 Isp, M/SEC                 1044.3

 MASS FRACTIONS

 *CO              0.37437  0.36993
 *CO2             0.04864  0.05563
 *H               0.00005  0.00001
 HCN              0.00001  0.00001
 *H2              0.02998  0.03034
 H2O              0.12254  0.11975
 NH3              0.00002  0.00002
 *NO              0.00001  0.00000
 *N2              0.42430  0.42430
 *OH              0.00007  0.00001

  * THERMODYNAMIC PROPERTIES FITTED TO 20000.K

 NOTE. WEIGHT FRACTION OF FUEL IN TOTAL FUELS AND OF OXIDANT IN TOTAL OXIDANTS

              THEORETICAL ROCKET PERFORMANCE ASSUMING EQUILIBRIUM

           COMPOSITION DURING EXPANSION FROM INFINITE AREA COMBUSTOR

 Pin =   400.0 PSIA
 CASE = _______________

             REACTANT                    WT FRACTION      ENERGY      TEMP
                                          (SEE NOTE)     KJ/KG-MOL      K  
 FUEL        C2H5OH                       1.0000000         0.000      0.000
 OXIDANT     N2O                          1.0000000         0.000      0.000

 O/F=    2.00000  %FUEL= 33.333333  R,EQ.RATIO= 2.262874  PHI,EQ.RATIO= 2.866136

                 CHAMBER   THROAT
 Pinf/P            1.0000   1.8160
 P, BAR            27.579   15.186
 T, K             2278.51  2009.32
 RHO, KG/CU M    2.8351 0 1.7709 0
 H, KJ/KG         0.00000  -545.45
 U, KJ/KG         -972.76 -1403.00
 G, KJ/KG        -26618.7 -24019.3
 S, KJ/(KG)(K)    11.6825  11.6825

 M, (1/n)          19.475   19.482
 (dLV/dLP)t      -1.00029 -1.00010
 (dLV/dLT)p        1.0060   1.0018
 Cp, KJ/(KG)(K)    2.0709   2.0014
 GAMMAs            1.2632   1.2722
 SON VEL,M/SEC     1108.5   1044.5
 MACH NUMBER        0.000    1.000

 PERFORMANCE PARAMETERS

 Ae/At                      1.0000
 CSTAR, M/SEC               1491.0
 CF                         0.7005
 Ivac, M/SEC                1865.5
 Isp, M/SEC                 1044.5

 MASS FRACTIONS

 *CO              0.37438  0.36993
 *CO2             0.04862  0.05563
 *H               0.00005  0.00001
 HCN              0.00001  0.00001
 *H2              0.02999  0.03034
 H2O              0.12256  0.11975
 NH3              0.00003  0.00002
 *N2              0.42429  0.42430
 *OH              0.00006  0.00001

  * THERMODYNAMIC PROPERTIES FITTED TO 20000.K

 NOTE. WEIGHT FRACTION OF FUEL IN TOTAL FUELS AND OF OXIDANT IN TOTAL OXIDANTS

              THEORETICAL ROCKET PERFORMANCE ASSUMING EQUILIBRIUM

           COMPOSITION DURING EXPANSION FROM INFINITE AREA COMBUSTOR

 Pin =   500.0 PSIA
 CASE = _______________

             REACTANT                    WT FRACTION      ENERGY      TEMP
                                          (SEE NOTE)     KJ/KG-MOL      K  
 FUEL        C2H5OH                       1.0000000         0.000      0.000
 OXIDANT     N2O                          1.0000000         0.000      0.000

 O/F=    2.00000  %FUEL= 33.333333  R,EQ.RATIO= 2.262874  PHI,EQ.RATIO= 2.866136

                 CHAMBER   THROAT
 Pinf/P            1.0000   1.8161
 P, BAR            34.474   18.982
 T, K             2279.11  2009.43
 RHO, KG/CU M    3.5432 0 2.2134 0
 H, KJ/KG         0.00000  -545.57
 U, KJ/KG         -972.96 -1403.15
 G, KJ/KG        -26408.5 -23829.3
 S, KJ/(KG)(K)    11.5872  11.5872

 M, (1/n)          19.476   19.482
 (dLV/dLP)t      -1.00027 -1.00010
 (dLV/dLT)p        1.0054   1.0017
 Cp, KJ/(KG)(K)    2.0646   1.9993
 GAMMAs            1.2638   1.2724
 SON VEL,M/SEC     1108.9   1044.6
 MACH NUMBER        0.000    1.000

 PERFORMANCE PARAMETERS

 Ae/At                      1.0000
 CSTAR, M/SEC               1491.0
 CF                         0.7006
 Ivac, M/SEC                1865.6
 Isp, M/SEC                 1044.6

 MASS FRACTIONS

 *CO              0.37438  0.36993
 *CO2             0.04861  0.05562
 *H               0.00004  0.00001
 HCN              0.00002  0.00001
 *H2              0.02999  0.03034
 H2O              0.12258  0.11976
 NH3              0.00003  0.00003
 *N2              0.42428  0.42429
 *OH              0.00006  0.00001

  * THERMODYNAMIC PROPERTIES FITTED TO 20000.K

 NOTE. WEIGHT FRACTION OF FUEL IN TOTAL FUELS AND OF OXIDANT IN TOTAL OXIDANTS

              THEORETICAL ROCKET PERFORMANCE ASSUMING EQUILIBRIUM

           COMPOSITION DURING EXPANSION FROM INFINITE AREA COMBUSTOR

 Pin =   600.0 PSIA
 CASE = _______________

             REACTANT                    WT FRACTION      ENERGY      TEMP
                                          (SEE NOTE)     KJ/KG-MOL      K  
 FUEL        C2H5OH                       1.0000000         0.000      0.000
 OXIDANT     N2O                          1.0000000         0.000      0.000

 O/F=    2.00000  %FUEL= 33.333333  R,EQ.RATIO= 2.262874  PHI,EQ.RATIO= 2.866136

                 CHAMBER   THROAT
 Pinf/P            1.0000   1.8162
 P, BAR            41.368   22.777
 T, K             2279.55  2009.51
 RHO, KG/CU M    4.2512 0 2.6559 0
 H, KJ/KG         0.00000  -545.66
 U, KJ/KG         -973.10 -1403.25
 G, KJ/KG        -26236.3 -23673.9
 S, KJ/(KG)(K)    11.5094  11.5094

 M, (1/n)          19.477   19.483
 (dLV/dLP)t      -1.00027 -1.00011
 (dLV/dLT)p        1.0050   1.0016
 Cp, KJ/(KG)(K)    2.0600   1.9978
 GAMMAs            1.2643   1.2726
 SON VEL,M/SEC     1109.2   1044.7
 MACH NUMBER        0.000    1.000

 PERFORMANCE PARAMETERS

 Ae/At                      1.0000
 CSTAR, M/SEC               1491.0
 CF                         0.7007
 Ivac, M/SEC                1865.6
 Isp, M/SEC                 1044.7

 MASS FRACTIONS

 *CO              0.37438  0.36992
 *CO2             0.04860  0.05562
 *H               0.00004  0.00001
 HCN              0.00002  0.00001
 *H2              0.02999  0.03034
 H2O              0.12259  0.11976
 NH3              0.00004  0.00003
 *N2              0.42427  0.42429
 *OH              0.00005  0.00001

  * THERMODYNAMIC PROPERTIES FITTED TO 20000.K

 NOTE. WEIGHT FRACTION OF FUEL IN TOTAL FUELS AND OF OXIDANT IN TOTAL OXIDANTS

              THEORETICAL ROCKET PERFORMANCE ASSUMING EQUILIBRIUM

           COMPOSITION DURING EXPANSION FROM INFINITE AREA COMBUSTOR

 Pin =   100.0 PSIA
 CASE = _______________

             REACTANT                    WT FRACTION      ENERGY      TEMP
                                          (SEE NOTE)     KJ/KG-MOL      K  
 FUEL        C2H5OH                       1.0000000         0.000      0.000
 OXIDANT     N2O                          1.0000000         0.000      0.000

 O/F=    2.20000  %FUEL= 31.250000  R,EQ.RATIO= 2.119445  PHI,EQ.RATIO= 2.605578

                 CHAMBER   THROAT
 Pinf/P            1.0000   1.8093
 P, BAR            6.8947   3.8108
 T, K             2377.50  2110.89
 RHO, KG/CU M    7.0300-1 4.3811-1
 H, KJ/KG         0.00000  -548.21
 U, KJ/KG         -980.76 -1418.05
 G, KJ/KG        -28707.7 -26036.7
 S, KJ/(KG)(K)    12.0747  12.0747

 M, (1/n)          20.156   20.177
 (dLV/dLP)t      -1.00079 -1.00024
 (dLV/dLT)p        1.0184   1.0062
 Cp, KJ/(KG)(K)    2.1562   2.0166
 GAMMAs            1.2464   1.2605
 SON VEL,M/SEC     1105.6   1047.1
 MACH NUMBER        0.000    1.000

 PERFORMANCE PARAMETERS

 Ae/At                      1.0000
 CSTAR, M/SEC               1503.0
 CF                         0.6967
 Ivac, M/SEC                1877.8
 Isp, M/SEC                 1047.1

 MASS FRACTIONS

 *CO              0.34485  0.34060
 *CO2             0.05524  0.06192
 *H               0.00014  0.00004
 *H2              0.02562  0.02600
 H2O              0.13628  0.13379
 NH3              0.00001  0.00000
 *NO              0.00003  0.00000
 *N2              0.43756  0.43758
 *OH              0.00027  0.00006

  * THERMODYNAMIC PROPERTIES FITTED TO 20000.K

 NOTE. WEIGHT FRACTION OF FUEL IN TOTAL FUELS AND OF OXIDANT IN TOTAL OXIDANTS

              THEORETICAL ROCKET PERFORMANCE ASSUMING EQUILIBRIUM

           COMPOSITION DURING EXPANSION FROM INFINITE AREA COMBUSTOR

 Pin =   200.0 PSIA
 CASE = _______________

             REACTANT                    WT FRACTION      ENERGY      TEMP
                                          (SEE NOTE)     KJ/KG-MOL      K  
 FUEL        C2H5OH                       1.0000000         0.000      0.000
 OXIDANT     N2O                          1.0000000         0.000      0.000

 O/F=    2.20000  %FUEL= 31.250000  R,EQ.RATIO= 2.119445  PHI,EQ.RATIO= 2.605578

                 CHAMBER   THROAT
 Pinf/P            1.0000   1.8104
 P, BAR            13.789   7.6168
 T, K             2382.54  2111.93
 RHO, KG/CU M    1.4036 0 8.7535-1
 H, KJ/KG         0.00000  -549.32
 U, KJ/KG         -982.41 -1419.46
 G, KJ/KG        -28087.5 -25446.6
 S, KJ/(KG)(K)    11.7889  11.7889

 M, (1/n)          20.164   20.180
 (dLV/dLP)t      -1.00058 -1.00018
 (dLV/dLT)p        1.0134   1.0045
 Cp, KJ/(KG)(K)    2.1060   1.9970
 GAMMAs            1.2508   1.2626
 SON VEL,M/SEC     1108.5   1048.2
 MACH NUMBER        0.000    1.000

 PERFORMANCE PARAMETERS

 Ae/At                      1.0000
 CSTAR, M/SEC               1502.9
 CF                         0.6974
 Ivac, M/SEC                1878.3
 Isp, M/SEC                 1048.2

 MASS FRACTIONS

 *CO              0.34492  0.34062
 *CO2             0.05511  0.06187
 *H               0.00010  0.00003
 *H2              0.02564  0.02601
 H2O              0.13642  0.13383
 NH3              0.00001  0.00001
 *NO              0.00002  0.00000
 *N2              0.43756  0.43757
 *OH              0.00020  0.00004

  * THERMODYNAMIC PROPERTIES FITTED TO 20000.K

 NOTE. WEIGHT FRACTION OF FUEL IN TOTAL FUELS AND OF OXIDANT IN TOTAL OXIDANTS

              THEORETICAL ROCKET PERFORMANCE ASSUMING EQUILIBRIUM

           COMPOSITION DURING EXPANSION FROM INFINITE AREA COMBUSTOR

 Pin =   300.0 PSIA
 CASE = _______________

             REACTANT                    WT FRACTION      ENERGY      TEMP
                                          (SEE NOTE)     KJ/KG-MOL      K  
 FUEL        C2H5OH                       1.0000000         0.000      0.000
 OXIDANT     N2O                          1.0000000         0.000      0.000

 O/F=    2.20000  %FUEL= 31.250000  R,EQ.RATIO= 2.119445  PHI,EQ.RATIO= 2.605578

                 CHAMBER   THROAT
 Pinf/P            1.0000   1.8109
 P, BAR            20.684   11.422
 T, K             2384.86  2112.41
 RHO, KG/CU M    2.1038 0 1.3125 0
 H, KJ/KG         0.00000  -549.80
 U, KJ/KG         -983.16 -1420.08
 G, KJ/KG        -27716.1 -25099.6
 S, KJ/(KG)(K)    11.6217  11.6217

 M, (1/n)          20.169   20.182
 (dLV/dLP)t      -1.00049 -1.00016
 (dLV/dLT)p        1.0111   1.0037
 Cp, KJ/(KG)(K)    2.0831   1.9883
 GAMMAs            1.2528   1.2635
 SON VEL,M/SEC     1109.8   1048.6
 MACH NUMBER        0.000    1.000

 PERFORMANCE PARAMETERS

 Ae/At                      1.0000
 CSTAR, M/SEC               1502.9
 CF                         0.6977
 Ivac, M/SEC                1878.5
 Isp, M/SEC                 1048.6

 MASS FRACTIONS

 *CO              0.34496  0.34063
 *CO2             0.05505  0.06186
 *H               0.00008  0.00003
 HCN              0.00001  0.00000
 *H2              0.02566  0.02602
 H2O              0.13649  0.13385
 NH3              0.00002  0.00001
 *NO              0.00002  0.00000
 *N2              0.43756  0.43757
 *OH              0.00017  0.00003

  * THERMODYNAMIC PROPERTIES FITTED TO 20000.K

 NOTE. WEIGHT FRACTION OF FUEL IN TOTAL FUELS AND OF OXIDANT IN TOTAL OXIDANTS

              THEORETICAL ROCKET PERFORMANCE ASSUMING EQUILIBRIUM

           COMPOSITION DURING EXPANSION FROM INFINITE AREA COMBUSTOR

 Pin =   400.0 PSIA
 CASE = _______________

             REACTANT                    WT FRACTION      ENERGY      TEMP
                                          (SEE NOTE)     KJ/KG-MOL      K  
 FUEL        C2H5OH                       1.0000000         0.000      0.000
 OXIDANT     N2O                          1.0000000         0.000      0.000

 O/F=    2.20000  %FUEL= 31.250000  R,EQ.RATIO= 2.119445  PHI,EQ.RATIO= 2.605578

                 CHAMBER   THROAT
 Pinf/P            1.0000   1.8112
 P, BAR            27.579   15.227
 T, K             2386.27  2112.69
 RHO, KG/CU M    2.8038 0 1.7495 0
 H, KJ/KG         0.00000  -550.10
 U, KJ/KG         -983.62 -1420.46
 G, KJ/KG        -27449.5 -24852.6
 S, KJ/(KG)(K)    11.5031  11.5031

 M, (1/n)          20.171   20.182
 (dLV/dLP)t      -1.00044 -1.00014
 (dLV/dLT)p        1.0097   1.0032
 Cp, KJ/(KG)(K)    2.0692   1.9831
 GAMMAs            1.2541   1.2641
 SON VEL,M/SEC     1110.7   1048.9
 MACH NUMBER        0.000    1.000

 PERFORMANCE PARAMETERS

 Ae/At                      1.0000
 CSTAR, M/SEC               1502.9
 CF                         0.6979
 Ivac, M/SEC                1878.7
 Isp, M/SEC                 1048.9

 MASS FRACTIONS

 *CO              0.34498  0.34064
 *CO2             0.05502  0.06184
 *H               0.00007  0.00002
 HCN              0.00001  0.00000
 *H2              0.02566  0.02602
 H2O              0.13652  0.13386
 NH3              0.00002  0.00002
 *NO              0.00001  0.00000
 *N2              0.43755  0.43756
 *OH              0.00014  0.00003

  * THERMODYNAMIC PROPERTIES FITTED TO 20000.K

 NOTE. WEIGHT FRACTION OF FUEL IN TOTAL FUELS AND OF OXIDANT IN TOTAL OXIDANTS

              THEORETICAL ROCKET PERFORMANCE ASSUMING EQUILIBRIUM

           COMPOSITION DURING EXPANSION FROM INFINITE AREA COMBUSTOR

 Pin =   500.0 PSIA
 CASE = _______________

             REACTANT                    WT FRACTION      ENERGY      TEMP
                                          (SEE NOTE)     KJ/KG-MOL      K  
 FUEL        C2H5OH                       1.0000000         0.000      0.000
 OXIDANT     N2O                          1.0000000         0.000      0.000

 O/F=    2.20000  %FUEL= 31.250000  R,EQ.RATIO= 2.119445  PHI,EQ.RATIO= 2.605578

                 CHAMBER   THROAT
 Pinf/P            1.0000   1.8114
 P, BAR            34.474   19.032
 T, K             2387.24  2112.89
 RHO, KG/CU M    3.5037 0 2.1865 0
 H, KJ/KG         0.00000  -550.30
 U, KJ/KG         -983.93 -1420.71
 G, KJ/KG        -27241.2 -24660.7
 S, KJ/(KG)(K)    11.4111  11.4111

 M, (1/n)          20.173   20.183
 (dLV/dLP)t      -1.00041 -1.00014
 (dLV/dLT)p        1.0087   1.0029
 Cp, KJ/(KG)(K)    2.0597   1.9796
 GAMMAs            1.2550   1.2645
 SON VEL,M/SEC     1111.2   1049.1
 MACH NUMBER        0.000    1.000

 PERFORMANCE PARAMETERS

 Ae/At                      1.0000
 CSTAR, M/SEC               1502.9
 CF                         0.6981
 Ivac, M/SEC                1878.8
 Isp, M/SEC                 1049.1

 MASS FRACTIONS

 *CO              0.34499  0.34064
 *CO2             0.05499  0.06184
 *H               0.00006  0.00002
 HCN              0.00001  0.00001
 *H2              0.02567  0.02602
 H2O              0.13655  0.13386
 NH3              0.00003  0.00002
 *NO              0.00001  0.00000
 *N2              0.43755  0.43756
 *OH              0.00013  0.00003

  * THERMODYNAMIC PROPERTIES FITTED TO 20000.K

 NOTE. WEIGHT FRACTION OF FUEL IN TOTAL FUELS AND OF OXIDANT IN TOTAL OXIDANTS

              THEORETICAL ROCKET PERFORMANCE ASSUMING EQUILIBRIUM

           COMPOSITION DURING EXPANSION FROM INFINITE AREA COMBUSTOR

 Pin =   600.0 PSIA
 CASE = _______________

             REACTANT                    WT FRACTION      ENERGY      TEMP
                                          (SEE NOTE)     KJ/KG-MOL      K  
 FUEL        C2H5OH                       1.0000000         0.000      0.000
 OXIDANT     N2O                          1.0000000         0.000      0.000

 O/F=    2.20000  %FUEL= 31.250000  R,EQ.RATIO= 2.119445  PHI,EQ.RATIO= 2.605578

                 CHAMBER   THROAT
 Pinf/P            1.0000   1.8115
 P, BAR            41.368   22.836
 T, K             2387.97  2113.03
 RHO, KG/CU M    4.2034 0 2.6235 0
 H, KJ/KG         0.00000  -550.45
 U, KJ/KG         -984.16 -1420.90
 G, KJ/KG        -27070.0 -24503.8
 S, KJ/(KG)(K)    11.3360  11.3360

 M, (1/n)          20.174   20.184
 (dLV/dLP)t      -1.00039 -1.00014
 (dLV/dLT)p        1.0080   1.0027
 Cp, KJ/(KG)(K)    2.0526   1.9770
 GAMMAs            1.2557   1.2648
 SON VEL,M/SEC     1111.7   1049.3
 MACH NUMBER        0.000    1.000

 PERFORMANCE PARAMETERS

 Ae/At                      1.0000
 CSTAR, M/SEC               1502.9
 CF                         0.6982
 Ivac, M/SEC                1878.8
 Isp, M/SEC                 1049.2

 MASS FRACTIONS

 *CO              0.34499  0.34064
 *CO2             0.05498  0.06183
 *H               0.00006  0.00002
 HCN              0.00001  0.00001
 *H2              0.02567  0.02602
 H2O              0.13657  0.13387
 NH3              0.00003  0.00002
 *NO              0.00001  0.00000
 *N2              0.43754  0.43756
 *OH              0.00012  0.00002

  * THERMODYNAMIC PROPERTIES FITTED TO 20000.K

 NOTE. WEIGHT FRACTION OF FUEL IN TOTAL FUELS AND OF OXIDANT IN TOTAL OXIDANTS

              THEORETICAL ROCKET PERFORMANCE ASSUMING EQUILIBRIUM

           COMPOSITION DURING EXPANSION FROM INFINITE AREA COMBUSTOR

 Pin =   100.0 PSIA
 CASE = _______________

             REACTANT                    WT FRACTION      ENERGY      TEMP
                                          (SEE NOTE)     KJ/KG-MOL      K  
 FUEL        C2H5OH                       1.0000000         0.000      0.000
 OXIDANT     N2O                          1.0000000         0.000      0.000

 O/F=    2.40000  %FUEL= 29.411765  R,EQ.RATIO= 1.993113  PHI,EQ.RATIO= 2.388446

                 CHAMBER   THROAT
 Pinf/P            1.0000   1.8038
 P, BAR            6.8947   3.8224
 T, K             2470.61  2204.33
 RHO, KG/CU M    6.9819-1 4.3451-1
 H, KJ/KG         0.00000  -550.39
 U, KJ/KG         -987.52 -1430.09
 G, KJ/KG        -29379.6 -26763.4
 S, KJ/(KG)(K)    11.8916  11.8916

 M, (1/n)          20.802   20.834
 (dLV/dLP)t      -1.00119 -1.00040
 (dLV/dLT)p        1.0274   1.0101
 Cp, KJ/(KG)(K)    2.1992   2.0236
 GAMMAs            1.2356   1.2513
 SON VEL,M/SEC     1104.6   1049.2
 MACH NUMBER        0.000    1.000

 PERFORMANCE PARAMETERS

 Ae/At                      1.0000
 CSTAR, M/SEC               1512.4
 CF                         0.6937
 Ivac, M/SEC                1887.6
 Isp, M/SEC                 1049.2

 MASS FRACTIONS

 *CO              0.31818  0.31410
 *CO2             0.06201  0.06843
 *H               0.00019  0.00007
 *H2              0.02183  0.02222
 H2O              0.14790  0.14575
 *NO              0.00007  0.00001
 *N2              0.44925  0.44927
 *O               0.00001  0.00000
 *OH              0.00055  0.00013

  * THERMODYNAMIC PROPERTIES FITTED TO 20000.K

 NOTE. WEIGHT FRACTION OF FUEL IN TOTAL FUELS AND OF OXIDANT IN TOTAL OXIDANTS

              THEORETICAL ROCKET PERFORMANCE ASSUMING EQUILIBRIUM

           COMPOSITION DURING EXPANSION FROM INFINITE AREA COMBUSTOR

 Pin =   200.0 PSIA
 CASE = _______________

             REACTANT                    WT FRACTION      ENERGY      TEMP
                                          (SEE NOTE)     KJ/KG-MOL      K  
 FUEL        C2H5OH                       1.0000000         0.000      0.000
 OXIDANT     N2O                          1.0000000         0.000      0.000

 O/F=    2.40000  %FUEL= 29.411765  R,EQ.RATIO= 1.993113  PHI,EQ.RATIO= 2.388446

                 CHAMBER   THROAT
 Pinf/P            1.0000   1.8054
 P, BAR            13.789   7.6378
 T, K             2478.07  2206.13
 RHO, KG/CU M    1.3931 0 8.6771-1
 H, KJ/KG         0.00000  -552.02
 U, KJ/KG         -989.86 -1432.24
 G, KJ/KG        -28781.8 -26175.5
 S, KJ/(KG)(K)    11.6146  11.6146

 M, (1/n)          20.815   20.839
 (dLV/dLP)t      -1.00088 -1.00029
 (dLV/dLT)p        1.0200   1.0073
 Cp, KJ/(KG)(K)    2.1299   1.9939
 GAMMAs            1.2411   1.2543
 SON VEL,M/SEC     1108.4   1050.7
 MACH NUMBER        0.000    1.000

 PERFORMANCE PARAMETERS

 Ae/At                      1.0000
 CSTAR, M/SEC               1512.4
 CF                         0.6947
 Ivac, M/SEC                1888.5
 Isp, M/SEC                 1050.7

 MASS FRACTIONS

 *CO              0.31830  0.31414
 *CO2             0.06183  0.06836
 *H               0.00014  0.00005
 *H2              0.02187  0.02224
 H2O              0.14815  0.14583
 NH3              0.00001  0.00001
 *NO              0.00005  0.00001
 *N2              0.44925  0.44927
 *OH              0.00040  0.00010

  * THERMODYNAMIC PROPERTIES FITTED TO 20000.K

 NOTE. WEIGHT FRACTION OF FUEL IN TOTAL FUELS AND OF OXIDANT IN TOTAL OXIDANTS

              THEORETICAL ROCKET PERFORMANCE ASSUMING EQUILIBRIUM

           COMPOSITION DURING EXPANSION FROM INFINITE AREA COMBUSTOR

 Pin =   300.0 PSIA
 CASE = _______________

             REACTANT                    WT FRACTION      ENERGY      TEMP
                                          (SEE NOTE)     KJ/KG-MOL      K  
 FUEL        C2H5OH                       1.0000000         0.000      0.000
 OXIDANT     N2O                          1.0000000         0.000      0.000

 O/F=    2.40000  %FUEL= 29.411765  R,EQ.RATIO= 1.993113  PHI,EQ.RATIO= 2.388446

                 CHAMBER   THROAT
 Pinf/P            1.0000   1.8062
 P, BAR            20.684   11.452
 T, K             2481.53  2206.94
 RHO, KG/CU M    2.0873 0 1.3007 0
 H, KJ/KG         0.00000  -552.76
 U, KJ/KG         -990.95 -1433.21
 G, KJ/KG        -28420.3 -25828.2
 S, KJ/(KG)(K)    11.4527  11.4527

 M, (1/n)          20.821   20.841
 (dLV/dLP)t      -1.00074 -1.00025
 (dLV/dLT)p        1.0166   1.0060
 Cp, KJ/(KG)(K)    2.0980   1.9806
 GAMMAs            1.2437   1.2556
 SON VEL,M/SEC     1110.2   1051.4
 MACH NUMBER        0.000    1.000

 PERFORMANCE PARAMETERS

 Ae/At                      1.0000
 CSTAR, M/SEC               1512.4
 CF                         0.6952
 Ivac, M/SEC                1888.8
 Isp, M/SEC                 1051.4

 MASS FRACTIONS

 *CO              0.31835  0.31416
 *CO2             0.06174  0.06833
 *H               0.00012  0.00004
 *H2              0.02188  0.02224
 H2O              0.14826  0.14586
 NH3              0.00001  0.00001
 *NO              0.00004  0.00001
 *N2              0.44925  0.44927
 *OH              0.00034  0.00008

  * THERMODYNAMIC PROPERTIES FITTED TO 20000.K

 NOTE. WEIGHT FRACTION OF FUEL IN TOTAL FUELS AND OF OXIDANT IN TOTAL OXIDANTS

              THEORETICAL ROCKET PERFORMANCE ASSUMING EQUILIBRIUM

           COMPOSITION DURING EXPANSION FROM INFINITE AREA COMBUSTOR

 Pin =   400.0 PSIA
 CASE = _______________

             REACTANT                    WT FRACTION      ENERGY      TEMP
                                          (SEE NOTE)     KJ/KG-MOL      K  
 FUEL        C2H5OH                       1.0000000         0.000      0.000
 OXIDANT     N2O                          1.0000000         0.000      0.000

 O/F=    2.40000  %FUEL= 29.411765  R,EQ.RATIO= 1.993113  PHI,EQ.RATIO= 2.388446

                 CHAMBER   THROAT
 Pinf/P            1.0000   1.8066
 P, BAR            27.579   15.266
 T, K             2483.65  2207.44
 RHO, KG/CU M    2.7812 0 1.7336 0
 H, KJ/KG         0.00000  -553.19
 U, KJ/KG         -991.61 -1433.78
 G, KJ/KG        -28159.3 -25580.8
 S, KJ/(KG)(K)    11.3378  11.3378

 M, (1/n)          20.825   20.843
 (dLV/dLP)t      -1.00066 -1.00022
 (dLV/dLT)p        1.0145   1.0052
 Cp, KJ/(KG)(K)    2.0786   1.9726
 GAMMAs            1.2454   1.2565
 SON VEL,M/SEC     1111.3   1051.9
 MACH NUMBER        0.000    1.000

 PERFORMANCE PARAMETERS

 Ae/At                      1.0000
 CSTAR, M/SEC               1512.4
 CF                         0.6955
 Ivac, M/SEC                1889.0
 Isp, M/SEC                 1051.8

 MASS FRACTIONS

 *CO              0.31838  0.31417
 *CO2             0.06169  0.06831
 *H               0.00010  0.00003
 HCN              0.00001  0.00000
 *H2              0.02189  0.02225
 H2O              0.14833  0.14588
 NH3              0.00001  0.00001
 *NO              0.00004  0.00001
 *N2              0.44925  0.44927
 *OH              0.00029  0.00007

  * THERMODYNAMIC PROPERTIES FITTED TO 20000.K

 NOTE. WEIGHT FRACTION OF FUEL IN TOTAL FUELS AND OF OXIDANT IN TOTAL OXIDANTS

              THEORETICAL ROCKET PERFORMANCE ASSUMING EQUILIBRIUM

           COMPOSITION DURING EXPANSION FROM INFINITE AREA COMBUSTOR

 Pin =   500.0 PSIA
 CASE = _______________

             REACTANT                    WT FRACTION      ENERGY      TEMP
                                          (SEE NOTE)     KJ/KG-MOL      K  
 FUEL        C2H5OH                       1.0000000         0.000      0.000
 OXIDANT     N2O                          1.0000000         0.000      0.000

 O/F=    2.40000  %FUEL= 29.411765  R,EQ.RATIO= 1.993113  PHI,EQ.RATIO= 2.388446

                 CHAMBER   THROAT
 Pinf/P            1.0000   1.8069
 P, BAR            34.474   19.079
 T, K             2485.13  2207.78
 RHO, KG/CU M    3.4749 0 2.1664 0
 H, KJ/KG         0.00000  -553.50
 U, KJ/KG         -992.07 -1434.18
 G, KJ/KG        -27954.6 -25388.2
 S, KJ/(KG)(K)    11.2488  11.2488

 M, (1/n)          20.828   20.844
 (dLV/dLP)t      -1.00060 -1.00021
 (dLV/dLT)p        1.0131   1.0047
 Cp, KJ/(KG)(K)    2.0651   1.9672
 GAMMAs            1.2466   1.2570
 SON VEL,M/SEC     1112.1   1052.2
 MACH NUMBER        0.000    1.000

 PERFORMANCE PARAMETERS

 Ae/At                      1.0000
 CSTAR, M/SEC               1512.4
 CF                         0.6957
 Ivac, M/SEC                1889.2
 Isp, M/SEC                 1052.1

 MASS FRACTIONS

 *CO              0.31840  0.31418
 *CO2             0.06166  0.06830
 *H               0.00009  0.00003
 HCN              0.00001  0.00000
 *H2              0.02189  0.02225
 H2O              0.14838  0.14589
 NH3              0.00002  0.00001
 *NO              0.00003  0.00001
 *N2              0.44925  0.44926
 *OH              0.00027  0.00006

  * THERMODYNAMIC PROPERTIES FITTED TO 20000.K

 NOTE. WEIGHT FRACTION OF FUEL IN TOTAL FUELS AND OF OXIDANT IN TOTAL OXIDANTS

              THEORETICAL ROCKET PERFORMANCE ASSUMING EQUILIBRIUM

           COMPOSITION DURING EXPANSION FROM INFINITE AREA COMBUSTOR

 Pin =   600.0 PSIA
 CASE = _______________

             REACTANT                    WT FRACTION      ENERGY      TEMP
                                          (SEE NOTE)     KJ/KG-MOL      K  
 FUEL        C2H5OH                       1.0000000         0.000      0.000
 OXIDANT     N2O                          1.0000000         0.000      0.000

 O/F=    2.40000  %FUEL= 29.411765  R,EQ.RATIO= 1.993113  PHI,EQ.RATIO= 2.388446

                 CHAMBER   THROAT
 Pinf/P            1.0000   1.8071
 P, BAR            41.368   22.892
 T, K             2486.23  2208.02
 RHO, KG/CU M    4.1685 0 2.5991 0
 H, KJ/KG         0.00000  -553.73
 U, KJ/KG         -992.41 -1434.48
 G, KJ/KG        -27786.0 -25230.6
 S, KJ/(KG)(K)    11.1760  11.1760

 M, (1/n)          20.830   20.844
 (dLV/dLP)t      -1.00056 -1.00019
 (dLV/dLT)p        1.0120   1.0043
 Cp, KJ/(KG)(K)    2.0552   1.9631
 GAMMAs            1.2474   1.2575
 SON VEL,M/SEC     1112.6   1052.4
 MACH NUMBER        0.000    1.000

 PERFORMANCE PARAMETERS

 Ae/At                      1.0000
 CSTAR, M/SEC               1512.4
 CF                         0.6958
 Ivac, M/SEC                1889.3
 Isp, M/SEC                 1052.4

 MASS FRACTIONS

 *CO              0.31841  0.31418
 *CO2             0.06163  0.06829
 *H               0.00008  0.00003
 HCN              0.00001  0.00001
 *H2              0.02190  0.02225
 H2O              0.14841  0.14590
 NH3              0.00002  0.00002
 *NO              0.00003  0.00000
 *N2              0.44924  0.44926
 *OH              0.00024  0.00006

  * THERMODYNAMIC PROPERTIES FITTED TO 20000.K

 NOTE. WEIGHT FRACTION OF FUEL IN TOTAL FUELS AND OF OXIDANT IN TOTAL OXIDANTS

              THEORETICAL ROCKET PERFORMANCE ASSUMING EQUILIBRIUM

           COMPOSITION DURING EXPANSION FROM INFINITE AREA COMBUSTOR

 Pin =   100.0 PSIA
 CASE = _______________

             REACTANT                    WT FRACTION      ENERGY      TEMP
                                          (SEE NOTE)     KJ/KG-MOL      K  
 FUEL        C2H5OH                       1.0000000         0.000      0.000
 OXIDANT     N2O                          1.0000000         0.000      0.000

 O/F=    2.60000  %FUEL= 27.777778  R,EQ.RATIO= 1.880995  PHI,EQ.RATIO= 2.204720

                 CHAMBER   THROAT
 Pinf/P            1.0000   1.7984
 P, BAR            6.8947   3.8339
 T, K             2553.48  2289.52
 RHO, KG/CU M    6.9517-1 4.3205-1
 H, KJ/KG         0.00000  -551.16
 U, KJ/KG         -991.80 -1438.54
 G, KJ/KG        -29935.0 -27391.7
[...]
 *H2              0.00245  0.00222
 H2O              0.17120  0.17614
 *NO              0.00800  0.00496
 NO2              0.00001  0.00000
 *N2              0.52300  0.52443
 *O               0.00151  0.00080
 *OH              0.01275  0.00871
 *O2              0.00937  0.00573

  * THERMODYNAMIC PROPERTIES FITTED TO 20000.K

 NOTE. WEIGHT FRACTION OF FUEL IN TOTAL FUELS AND OF OXIDANT IN TOTAL OXIDANTS

              THEORETICAL ROCKET PERFORMANCE ASSUMING EQUILIBRIUM

           COMPOSITION DURING EXPANSION FROM INFINITE AREA COMBUSTOR

 Pin =   300.0 PSIA
 CASE = _______________

             REACTANT                    WT FRACTION      ENERGY      TEMP
                                          (SEE NOTE)     KJ/KG-MOL      K  
 FUEL        C2H5OH                       1.0000000         0.000      0.000
 OXIDANT     N2O                          1.0000000         0.000      0.000

 O/F=    4.80000  %FUEL= 17.241379  R,EQ.RATIO= 1.161983  PHI,EQ.RATIO= 1.194223

                 CHAMBER   THROAT
 Pinf/P            1.0000   1.7438
 P, BAR            20.684   11.861
 T, K             3005.95  2820.66
 RHO, KG/CU M    2.1522 0 1.3274 0
 H, KJ/KG         0.00000  -515.55
 U, KJ/KG         -961.06 -1409.14
 G, KJ/KG        -30473.0 -29110.2
 S, KJ/(KG)(K)    10.1376  10.1376

 M, (1/n)          26.006   26.245
 (dLV/dLP)t      -1.01233 -1.00840
 (dLV/dLT)p        1.2707   1.1978
 Cp, KJ/(KG)(K)    3.6490   3.2059
 GAMMAs            1.1483   1.1539
 SON VEL,M/SEC     1050.5   1015.4
 MACH NUMBER        0.000    1.000

 PERFORMANCE PARAMETERS

 Ae/At                      1.0000
 CSTAR, M/SEC               1534.6
 CF                         0.6617
 Ivac, M/SEC                1895.4
 Isp, M/SEC                 1015.4

 MASS FRACTIONS

 *CO              0.09983  0.09063
 *CO2             0.17255  0.18702
 *H               0.00024  0.00016
 HO2              0.00001  0.00001
 *H2              0.00237  0.00215
 H2O              0.17263  0.17732
 *NO              0.00778  0.00470
 NO2              0.00001  0.00000
 *N2              0.52311  0.52455
 *O               0.00128  0.00066
 *OH              0.01193  0.00797
 *O2              0.00824  0.00483

  * THERMODYNAMIC PROPERTIES FITTED TO 20000.K

 NOTE. WEIGHT FRACTION OF FUEL IN TOTAL FUELS AND OF OXIDANT IN TOTAL OXIDANTS

              THEORETICAL ROCKET PERFORMANCE ASSUMING EQUILIBRIUM

           COMPOSITION DURING EXPANSION FROM INFINITE AREA COMBUSTOR

 Pin =   400.0 PSIA
 CASE = _______________

             REACTANT                    WT FRACTION      ENERGY      TEMP
                                          (SEE NOTE)     KJ/KG-MOL      K  
 FUEL        C2H5OH                       1.0000000         0.000      0.000
 OXIDANT     N2O                          1.0000000         0.000      0.000

 O/F=    4.80000  %FUEL= 17.241379  R,EQ.RATIO= 1.161983  PHI,EQ.RATIO= 1.194223

                 CHAMBER   THROAT
 Pinf/P            1.0000   1.7458
 P, BAR            27.579   15.797
 T, K             3026.21  2835.08
 RHO, KG/CU M    2.8552 0 1.7612 0
 H, KJ/KG         0.00000  -518.88
 U, KJ/KG         -965.92 -1415.83
 G, KJ/KG        -30400.3 -28999.2
 S, KJ/(KG)(K)    10.0457  10.0457

 M, (1/n)          26.049   26.280
 (dLV/dLP)t      -1.01157 -1.00772
 (dLV/dLT)p        1.2533   1.1815
 Cp, KJ/(KG)(K)    3.5178   3.0791
 GAMMAs            1.1507   1.1570
 SON VEL,M/SEC     1054.3   1018.7
 MACH NUMBER        0.000    1.000

 PERFORMANCE PARAMETERS

 Ae/At                      1.0000
 CSTAR, M/SEC               1537.1
 CF                         0.6627
 Ivac, M/SEC                1899.2
 Isp, M/SEC                 1018.7

 MASS FRACTIONS

 *CO              0.09863  0.08962
 *CO2             0.17445  0.18860
 *H               0.00022  0.00015
 HO2              0.00001  0.00001
 *H2              0.00231  0.00211
 H2O              0.17362  0.17812
 *NO              0.00760  0.00449
 NO2              0.00001  0.00000
 *N2              0.52319  0.52465
 *O               0.00113  0.00056
 *OH              0.01134  0.00745
 *O2              0.00748  0.00424

  * THERMODYNAMIC PROPERTIES FITTED TO 20000.K

 NOTE. WEIGHT FRACTION OF FUEL IN TOTAL FUELS AND OF OXIDANT IN TOTAL OXIDANTS

              THEORETICAL ROCKET PERFORMANCE ASSUMING EQUILIBRIUM

           COMPOSITION DURING EXPANSION FROM INFINITE AREA COMBUSTOR

 Pin =   500.0 PSIA
 CASE = _______________

             REACTANT                    WT FRACTION      ENERGY      TEMP
                                          (SEE NOTE)     KJ/KG-MOL      K  
 FUEL        C2H5OH                       1.0000000         0.000      0.000
 OXIDANT     N2O                          1.0000000         0.000      0.000

 O/F=    4.80000  %FUEL= 17.241379  R,EQ.RATIO= 1.161983  PHI,EQ.RATIO= 1.194223

                 CHAMBER   THROAT
 Pinf/P            1.0000   1.7473
 P, BAR            34.474   19.729
 T, K             3041.57  2845.78
 RHO, KG/CU M    3.5555 0 2.1935 0
 H, KJ/KG         0.00000  -521.43
 U, KJ/KG         -969.59 -1420.87
 G, KJ/KG        -30338.1 -28906.6
 S, KJ/(KG)(K)     9.9745   9.9745

 M, (1/n)          26.082   26.307
 (dLV/dLP)t      -1.01100 -1.00720
 (dLV/dLT)p        1.2401   1.1692
 Cp, KJ/(KG)(K)    3.4195   2.9848
 GAMMAs            1.1526   1.1595
 SON VEL,M/SEC     1057.1   1021.2
 MACH NUMBER        0.000    1.000

 PERFORMANCE PARAMETERS

 Ae/At                      1.0000
 CSTAR, M/SEC               1539.0
 CF                         0.6635
 Ivac, M/SEC                1902.0
 Isp, M/SEC                 1021.2

 MASS FRACTIONS

 *CO              0.09769  0.08887
 *CO2             0.17592  0.18979
 *H               0.00020  0.00014
 HO2              0.00002  0.00001
 *H2              0.00227  0.00208
 H2O              0.17437  0.17871
 *NO              0.00744  0.00432
 NO2              0.00001  0.00000
 *N2              0.52327  0.52473
 *O               0.00102  0.00050
 *OH              0.01087  0.00705
 *O2              0.00691  0.00381

  * THERMODYNAMIC PROPERTIES FITTED TO 20000.K

 NOTE. WEIGHT FRACTION OF FUEL IN TOTAL FUELS AND OF OXIDANT IN TOTAL OXIDANTS

              THEORETICAL ROCKET PERFORMANCE ASSUMING EQUILIBRIUM

           COMPOSITION DURING EXPANSION FROM INFINITE AREA COMBUSTOR

 Pin =   600.0 PSIA
 CASE = _______________

             REACTANT                    WT FRACTION      ENERGY      TEMP
                                          (SEE NOTE)     KJ/KG-MOL      K  
 FUEL        C2H5OH                       1.0000000         0.000      0.000
 OXIDANT     N2O                          1.0000000         0.000      0.000

 O/F=    4.80000  %FUEL= 17.241379  R,EQ.RATIO= 1.161983  PHI,EQ.RATIO= 1.194223

                 CHAMBER   THROAT
 Pinf/P            1.0000   1.7487
 P, BAR            41.368   23.657
 T, K             3053.87  2854.19
 RHO, KG/CU M    4.2537 0 2.6245 0
 H, KJ/KG         0.00000  -523.51
 U, KJ/KG         -972.53 -1424.90
 G, KJ/KG        -30283.3 -28826.8
 S, KJ/(KG)(K)     9.9164   9.9164

 M, (1/n)          26.109   26.327
 (dLV/dLP)t      -1.01053 -1.00679
 (dLV/dLT)p        1.2296   1.1595
 Cp, KJ/(KG)(K)    3.3413   2.9104
 GAMMAs            1.1542   1.1616
 SON VEL,M/SEC     1059.5   1023.2
 MACH NUMBER        0.000    1.000

 PERFORMANCE PARAMETERS

 Ae/At                      1.0000
 CSTAR, M/SEC               1540.4
 CF                         0.6643
 Ivac, M/SEC                1904.2
 Isp, M/SEC                 1023.2

 MASS FRACTIONS

 *CO              0.09693  0.08826
 *CO2             0.17711  0.19073
 *H               0.00019  0.00013
 HO2              0.00002  0.00001
 *H2              0.00224  0.00206
 H2O              0.17497  0.17918
 *NO              0.00729  0.00417
 NO2              0.00001  0.00000
 *N2              0.52333  0.52479
 *O               0.00094  0.00045
 *OH              0.01049  0.00673
 *O2              0.00646  0.00348

  * THERMODYNAMIC PROPERTIES FITTED TO 20000.K

 NOTE. WEIGHT FRACTION OF FUEL IN TOTAL FUELS AND OF OXIDANT IN TOTAL OXIDANTS

              THEORETICAL ROCKET PERFORMANCE ASSUMING EQUILIBRIUM

           COMPOSITION DURING EXPANSION FROM INFINITE AREA COMBUSTOR

 Pin =   100.0 PSIA
 CASE = _______________

             REACTANT                    WT FRACTION      ENERGY      TEMP
                                          (SEE NOTE)     KJ/KG-MOL      K  
 FUEL        C2H5OH                       1.0000000         0.000      0.000
 OXIDANT     N2O                          1.0000000         0.000      0.000

 O/F=    5.00000  %FUEL= 16.666667  R,EQ.RATIO= 1.122960  PHI,EQ.RATIO= 1.146454

                 CHAMBER   THROAT
 Pinf/P            1.0000   1.7346
 P, BAR            6.8947   3.9748
 T, K             2921.13  2761.08
 RHO, KG/CU M    7.3999-1 4.5611-1
 H, KJ/KG         0.00000  -496.43
 U, KJ/KG         -931.73 -1367.88
 G, KJ/KG        -30421.0 -29250.7
 S, KJ/(KG)(K)    10.4141  10.4141

 M, (1/n)          26.067   26.344
 (dLV/dLP)t      -1.01604 -1.01229
 (dLV/dLT)p        1.3582   1.2920
 Cp, KJ/(KG)(K)    4.2930   3.9145
 GAMMAs            1.1377   1.1393
 SON VEL,M/SEC     1029.6    996.4
 MACH NUMBER        0.000    1.000

 PERFORMANCE PARAMETERS

 Ae/At                      1.0000
 CSTAR, M/SEC               1517.1
 CF                         0.6568
 Ivac, M/SEC                1871.0
 Isp, M/SEC                  996.4

 MASS FRACTIONS

 *CO              0.09353  0.08311
 *CO2             0.17149  0.18785
 *H               0.00031  0.00022
 HO2              0.00001  0.00001
 *H2              0.00219  0.00193
 H2O              0.16539  0.17063
 *NO              0.00938  0.00636
 NO2              0.00001  0.00000
 *N2              0.52602  0.52743
 *O               0.00219  0.00131
 *OH              0.01475  0.01074
 *O2              0.01473  0.01041

  * THERMODYNAMIC PROPERTIES FITTED TO 20000.K

 NOTE. WEIGHT FRACTION OF FUEL IN TOTAL FUELS AND OF OXIDANT IN TOTAL OXIDANTS

              THEORETICAL ROCKET PERFORMANCE ASSUMING EQUILIBRIUM

           COMPOSITION DURING EXPANSION FROM INFINITE AREA COMBUSTOR

 Pin =   200.0 PSIA
 CASE = _______________

             REACTANT                    WT FRACTION      ENERGY      TEMP
                                          (SEE NOTE)     KJ/KG-MOL      K  
 FUEL        C2H5OH                       1.0000000         0.000      0.000
 OXIDANT     N2O                          1.0000000         0.000      0.000

 O/F=    5.00000  %FUEL= 16.666667  R,EQ.RATIO= 1.122960  PHI,EQ.RATIO= 1.146454

                 CHAMBER   THROAT
 Pinf/P            1.0000   1.7382
 P, BAR            13.789   7.9332
 T, K             2974.22  2802.74
 RHO, KG/CU M    1.4600 0 9.0029-1
 H, KJ/KG         0.00000  -504.49
 U, KJ/KG         -944.47 -1385.69
 G, KJ/KG        -30317.7 -29074.3
 S, KJ/(KG)(K)    10.1935  10.1935

 M, (1/n)          26.183   26.445
 (dLV/dLP)t      -1.01427 -1.01062
 (dLV/dLT)p        1.3154   1.2506
 Cp, KJ/(KG)(K)    3.9541   3.5817
 GAMMAs            1.1424   1.1450
 SON VEL,M/SEC     1038.7   1004.5
 MACH NUMBER        0.000    1.000

 PERFORMANCE PARAMETERS

 Ae/At                      1.0000
 CSTAR, M/SEC               1524.8
 CF                         0.6587
 Ivac, M/SEC                1881.7
 Isp, M/SEC                 1004.5

 MASS FRACTIONS

 *CO              0.09028  0.08006
 *CO2             0.17659  0.19265
 *H               0.00025  0.00017
 HO2              0.00002  0.00001
 *H2              0.00205  0.00181
 H2O              0.16783  0.17274
 *NO              0.00923  0.00606
 NO2              0.00001  0.00000
 *N2              0.52609  0.52757
 *O               0.00172  0.00098
 *OH              0.01346  0.00954
 *O2              0.01246  0.00840

  * THERMODYNAMIC PROPERTIES FITTED TO 20000.K

 NOTE. WEIGHT FRACTION OF FUEL IN TOTAL FUELS AND OF OXIDANT IN TOTAL OXIDANTS

              THEORETICAL ROCKET PERFORMANCE ASSUMING EQUILIBRIUM

           COMPOSITION DURING EXPANSION FROM INFINITE AREA COMBUSTOR

 Pin =   300.0 PSIA
 CASE = _______________

             REACTANT                    WT FRACTION      ENERGY      TEMP
                                          (SEE NOTE)     KJ/KG-MOL      K  
 FUEL        C2H5OH                       1.0000000         0.000      0.000
 OXIDANT     N2O                          1.0000000         0.000      0.000

 O/F=    5.00000  %FUEL= 16.666667  R,EQ.RATIO= 1.122960  PHI,EQ.RATIO= 1.146454

                 CHAMBER   THROAT
 Pinf/P            1.0000   1.7404
 P, BAR            20.684   11.885
 T, K             3004.42  2825.86
 RHO, KG/CU M    2.1735 0 1.3405 0
 H, KJ/KG         0.00000  -509.14
 U, KJ/KG         -951.66 -1395.71
 G, KJ/KG        -30239.2 -28951.2
 S, KJ/(KG)(K)    10.0649  10.0649

 M, (1/n)          26.249   26.502
 (dLV/dLP)t      -1.01326 -1.00967
 (dLV/dLT)p        1.2915   1.2274
 Cp, KJ/(KG)(K)    3.7693   3.3998
 GAMMAs            1.1453   1.1486
 SON VEL,M/SEC     1044.0   1009.1
 MACH NUMBER        0.000    1.000

 PERFORMANCE PARAMETERS

 Ae/At                      1.0000
 CSTAR, M/SEC               1529.1
 CF                         0.6599
 Ivac, M/SEC                1887.7
 Isp, M/SEC                 1009.1

 MASS FRACTIONS

 *CO              0.08833  0.07829
 *CO2             0.17965  0.19543
 *H               0.00022  0.00015
 HO2              0.00002  0.00001
 *H2              0.00197  0.00174
 H2O              0.16922  0.17392
 *NO              0.00907  0.00583
 NO2              0.00001  0.00000
 *N2              0.52616  0.52768
 *O               0.00147  0.00082
 *OH              0.01268  0.00883
 *O2              0.01118  0.00729

  * THERMODYNAMIC PROPERTIES FITTED TO 20000.K

 NOTE. WEIGHT FRACTION OF FUEL IN TOTAL FUELS AND OF OXIDANT IN TOTAL OXIDANTS

              THEORETICAL ROCKET PERFORMANCE ASSUMING EQUILIBRIUM

           COMPOSITION DURING EXPANSION FROM INFINITE AREA COMBUSTOR

 Pin =   400.0 PSIA
 CASE = _______________

             REACTANT                    WT FRACTION      ENERGY      TEMP
                                          (SEE NOTE)     KJ/KG-MOL      K  
 FUEL        C2H5OH                       1.0000000         0.000      0.000
 OXIDANT     N2O                          1.0000000         0.000      0.000

 O/F=    5.00000  %FUEL= 16.666667  R,EQ.RATIO= 1.122960  PHI,EQ.RATIO= 1.146454

                 CHAMBER   THROAT
 Pinf/P            1.0000   1.7420
 P, BAR            27.579   15.831
 T, K             3025.39  2841.63
 RHO, KG/CU M    2.8829 0 1.7784 0
 H, KJ/KG         0.00000  -512.40
 U, KJ/KG         -956.63 -1402.62
 G, KJ/KG        -30174.9 -28854.5
 S, KJ/(KG)(K)     9.9739   9.9739

 M, (1/n)          26.295   26.540
 (dLV/dLP)t      -1.01256 -1.00901
 (dLV/dLT)p        1.2750   1.2115
 Cp, KJ/(KG)(K)    3.6440   3.2762
 GAMMAs            1.1475   1.1512
 SON VEL,M/SEC     1047.7   1012.3
 MACH NUMBER        0.000    1.000

 PERFORMANCE PARAMETERS

 Ae/At                      1.0000
 CSTAR, M/SEC               1531.9
 CF                         0.6608
 Ivac, M/SEC                1891.7
 Isp, M/SEC                 1012.3

 MASS FRACTIONS

 *CO              0.08694  0.07705
 *CO2             0.18183  0.19737
 *H               0.00020  0.00014
 HO2              0.00002  0.00001
 *H2              0.00192  0.00170
 H2O              0.17019  0.17472
 *NO              0.00893  0.00564
 NO2              0.00001  0.00000
 *N2              0.52623  0.52776
 *O               0.00132  0.00071
 *OH              0.01211  0.00833
 *O2              0.01030  0.00655

  * THERMODYNAMIC PROPERTIES FITTED TO 20000.K

 NOTE. WEIGHT FRACTION OF FUEL IN TOTAL FUELS AND OF OXIDANT IN TOTAL OXIDANTS

              THEORETICAL ROCKET PERFORMANCE ASSUMING EQUILIBRIUM

           COMPOSITION DURING EXPANSION FROM INFINITE AREA COMBUSTOR

 Pin =   500.0 PSIA
 CASE = _______________

             REACTANT                    WT FRACTION      ENERGY      TEMP
                                          (SEE NOTE)     KJ/KG-MOL      K  
 FUEL        C2H5OH                       1.0000000         0.000      0.000
 OXIDANT     N2O                          1.0000000         0.000      0.000

 O/F=    5.00000  %FUEL= 16.666667  R,EQ.RATIO= 1.122960  PHI,EQ.RATIO= 1.146454

                 CHAMBER   THROAT
 Pinf/P            1.0000   1.7434
 P, BAR            34.474   19.774
 T, K             3041.37  2853.47
 RHO, KG/CU M    3.5895 0 2.2145 0
 H, KJ/KG         0.00000  -514.91
 U, KJ/KG         -960.41 -1407.86
 G, KJ/KG        -30119.8 -28773.9
 S, KJ/(KG)(K)     9.9034   9.9034

 M, (1/n)          26.330   26.570
 (dLV/dLP)t      -1.01202 -1.00851
 (dLV/dLT)p        1.2625   1.1995
 Cp, KJ/(KG)(K)    3.5499   3.1836
 GAMMAs            1.1491   1.1533
 SON VEL,M/SEC     1050.5   1014.8
 MACH NUMBER        0.000    1.000

 PERFORMANCE PARAMETERS

 Ae/At                      1.0000
 CSTAR, M/SEC               1534.0
 CF                         0.6615
 Ivac, M/SEC                1894.7
 Isp, M/SEC                 1014.8

 MASS FRACTIONS

 *CO              0.08586  0.07611
 *CO2             0.18353  0.19886
 *H               0.00018  0.00012
 HO2              0.00002  0.00001
 *H2              0.00188  0.00166
 H2O              0.17092  0.17533
 *NO              0.00880  0.00549
 NO2              0.00001  0.00000
 *N2              0.52628  0.52784
 *O               0.00120  0.00064
 *OH              0.01167  0.00794
 *O2              0.00964  0.00600

  * THERMODYNAMIC PROPERTIES FITTED TO 20000.K

 NOTE. WEIGHT FRACTION OF FUEL IN TOTAL FUELS AND OF OXIDANT IN TOTAL OXIDANTS

              THEORETICAL ROCKET PERFORMANCE ASSUMING EQUILIBRIUM

           COMPOSITION DURING EXPANSION FROM INFINITE AREA COMBUSTOR

 Pin =   600.0 PSIA
 CASE = _______________

             REACTANT                    WT FRACTION      ENERGY      TEMP
                                          (SEE NOTE)     KJ/KG-MOL      K  
 FUEL        C2H5OH                       1.0000000         0.000      0.000
 OXIDANT     N2O                          1.0000000         0.000      0.000

 O/F=    5.00000  %FUEL= 16.666667  R,EQ.RATIO= 1.122960  PHI,EQ.RATIO= 1.146454

                 CHAMBER   THROAT
 Pinf/P            1.0000   1.7445
 P, BAR            41.368   23.714
 T, K             3054.23  2862.87
 RHO, KG/CU M    4.2938 0 2.6493 0
 H, KJ/KG         0.00000  -516.94
 U, KJ/KG         -963.45 -1412.05
 G, KJ/KG        -30071.4 -28704.3
 S, KJ/(KG)(K)     9.8458   9.8458

 M, (1/n)          26.358   26.593
 (dLV/dLP)t      -1.01158 -1.00811
 (dLV/dLT)p        1.2525   1.1899
 Cp, KJ/(KG)(K)    3.4749   3.1099
 GAMMAs            1.1505   1.1550
 SON VEL,M/SEC     1052.8   1016.8
 MACH NUMBER        0.000    1.000

 PERFORMANCE PARAMETERS

 Ae/At                      1.0000
 CSTAR, M/SEC               1535.7
 CF                         0.6621
 Ivac, M/SEC                1897.1
 Isp, M/SEC                 1016.8

 MASS FRACTIONS

 *CO              0.08498  0.07535
 *CO2             0.18491  0.20005
 *H               0.00017  0.00012
 HO2              0.00002  0.00001
 *H2              0.00184  0.00164
 H2O              0.17151  0.17581
 *NO              0.00869  0.00536
 NO2              0.00001  0.00000
 *N2              0.52634  0.52790
 *O               0.00111  0.00058
 *OH              0.01130  0.00762
 *O2              0.00910  0.00557

  * THERMODYNAMIC PROPERTIES FITTED TO 20000.K

 NOTE. WEIGHT FRACTION OF FUEL IN TOTAL FUELS AND OF OXIDANT IN TOTAL OXIDANTS